@<TRIPOS>MOLECULE
MOL
  192   187     1     0     0
SMALL
resp


@<TRIPOS>ATOM
      1 C1         -6.1410   -3.5380    5.0110 c3        1 MOL     -0.278287
      2 C2         -5.5390   -2.7990    3.8180 c         1 MOL      0.851595
      3 O1         -5.0160   -3.4200    2.8780 o         1 MOL     -0.652832
      4 H1         -5.4970   -4.3740    5.2830 hc        1 MOL      0.066350
      5 H2         -6.2260   -2.8560    5.8570 hc        1 MOL      0.066350
      6 H3         -7.1300   -3.9130    4.7460 hc        1 MOL      0.066350
      7 N1         -5.5830   -1.4250    3.7790 n         1 MOL     -0.765883
      8 C3         -5.3220   -0.6750    2.4750 c3        1 MOL      0.371200
      9 C4         -3.8640   -0.5500    2.0110 c         1 MOL      0.067505
     10 O2         -3.6300    0.2170    1.0520 o         1 MOL     -0.354278
     11 C5         -5.9600    0.6950    2.4020 c3        1 MOL     -0.015055
     12 C6         -7.3960    0.7300    3.0060 c         1 MOL      0.631488
     13 O3         -7.5580    0.3630    4.2500 o         1 MOL     -0.686976
     14 O4         -8.2370    1.2410    2.2710 o         1 MOL     -0.686976
     15 H4         -6.1810   -0.8990    4.4060 hn        1 MOL      0.301786
     16 H5         -5.8790   -1.2130    1.7030 h1        1 MOL      0.056163
     17 H6         -6.0260    0.9730    1.3470 hc        1 MOL     -0.025885
     18 H7         -5.4730    1.5160    2.9200 hc        1 MOL     -0.025885
     19 N2         -2.9070   -1.2600    2.5850 n         1 MOL     -0.057244
     20 C7         -1.4510   -1.1160    2.3330 c3        1 MOL     -0.009533
     21 C8         -0.7510   -2.3830    1.8000 c         1 MOL      0.448850
     22 O5         -1.1310   -3.4100    2.3150 o         1 MOL     -0.468869
     23 C9         -0.7700   -0.7680    3.7140 c3        1 MOL     -0.391586
     24 C10        -0.7440    0.7290    3.9800 c3        1 MOL     -0.127241
     25 C11        -0.5580    1.1730    5.4770 c3        1 MOL      0.048672
     26 C12        -0.4340    2.6950    5.5300 c3        1 MOL     -0.059778
     27 N3          0.9500    3.1430    5.2430 n4        1 MOL     -0.220885
     28 H8         -3.1450   -1.9280    3.3060 hn        1 MOL      0.194104
     29 H9         -1.2950   -0.2980    1.6330 h1        1 MOL      0.169991
     30 H10         0.2660   -1.0490    3.8250 hc        1 MOL      0.148676
     31 H11        -1.4150   -1.2240    4.4680 hc        1 MOL      0.148676
     32 H12        -1.7250    0.9930    3.5890 hc        1 MOL      0.077116
     33 H13        -0.0650    1.3250    3.3610 hc        1 MOL      0.077116
     34 H14         0.2540    0.7070    6.0250 hc        1 MOL      0.048039
     35 H15        -1.4000    0.8680    6.1000 hc        1 MOL      0.048039
     36 H16        -0.5930    2.8540    6.5920 hx        1 MOL      0.082283
     37 H17        -1.1750    3.1820    4.9000 hx        1 MOL      0.082283
     38 H18         1.1220    3.2200    4.2520 hn        1 MOL      0.297364
     39 H19         1.1890    4.0300    5.6560 hn        1 MOL      0.297364
     40 H20         1.6280    2.4740    5.5810 hn        1 MOL      0.297364
     41 N4          0.2390   -2.3930    0.9000 n         1 MOL     -0.174067
     42 C13         1.1020   -1.3700    0.2280 c3        1 MOL     -0.205941
     43 C14         1.5410   -0.2790    1.2150 c         1 MOL      0.226678
     44 O6          0.9620    0.8070    1.1800 o         1 MOL     -0.500993
     45 C15         0.4770   -0.9240   -1.0730 c3        1 MOL     -0.844416
     46 C16         0.4740   -1.9990   -2.1440 c         1 MOL      0.661029
     47 O7          0.9660   -3.1430   -2.0000 o         1 MOL     -0.686737
     48 O8         -0.0960   -1.7220   -3.2280 o         1 MOL     -0.686737
     49 H21         0.5260   -3.3410    0.6760 hn        1 MOL      0.127217
     50 H22         2.0070   -1.8680   -0.1050 h1        1 MOL      0.106112
     51 H23         1.0290   -0.0750   -1.4720 hc        1 MOL      0.358999
     52 H24        -0.5540   -0.6390   -0.8660 hc        1 MOL      0.358999
     53 N5          2.5450   -0.3870    1.9840 n         1 MOL     -0.117249
     54 C17         3.4320   -1.5060    2.0080 c3        1 MOL     -0.114133
     55 C18         4.3300   -1.5720    3.2320 c         1 MOL      0.495827
     56 O9          4.2090   -0.7060    4.1050 o         1 MOL     -0.563157
     57 H25         2.7440    0.4740    2.4810 hn        1 MOL      0.235579
     58 H26         4.0510   -1.3990    1.1140 h1        1 MOL      0.113695
     59 H27         2.8110   -2.3950    2.0200 h1        1 MOL      0.113695
     60 N6          5.2930   -2.4480    3.2780 n         1 MOL     -0.491651
     61 C19         5.7980   -3.2460    2.1720 c3        1 MOL      0.253712
     62 C20         6.5650   -2.4840    1.0680 c         1 MOL      0.497045
     63 O10         7.2510   -1.4740    1.2700 o         1 MOL     -0.454563
     64 C21         6.7350   -4.3580    2.6810 c3        1 MOL     -0.223221
     65 C22         7.8050   -3.9480    3.7170 c         1 MOL      0.733600
     66 O11         7.8710   -2.7590    4.0990 o         1 MOL     -0.673571
     67 O12         8.6360   -4.8370    4.0450 o         1 MOL     -0.673571
     68 H28         6.0160   -2.2650    3.9490 hn        1 MOL      0.317080
     69 H29         4.9340   -3.7050    1.6870 h1        1 MOL     -0.079800
     70 H30         7.2120   -4.7380    1.7760 hc        1 MOL      0.021591
     71 H31         6.1090   -5.0840    3.2010 hc        1 MOL      0.021591
     72 N7          6.5280   -2.9960   -0.1440 n         1 MOL     -0.173620
     73 C23         7.2630   -2.4250   -1.2890 c3        1 MOL     -0.522590
     74 C24         6.8340   -1.0040   -1.6970 c         1 MOL      0.587224
     75 O13         7.6750   -0.1960   -2.0860 o         1 MOL     -0.515610
     76 H32         5.9750   -3.8320   -0.2520 hn        1 MOL      0.168506
     77 H33         7.1130   -3.0130   -2.1950 h1        1 MOL      0.213642
     78 H34         8.3100   -2.2430   -1.0670 h1        1 MOL      0.213642
     79 N8          5.5100   -0.6150   -1.5880 n         1 MOL     -0.458747
     80 C25         4.9850    0.7050   -2.0210 c3        1 MOL      0.026709
     81 C26         4.9750    1.7390   -0.9830 c         1 MOL      0.576355
     82 O14         4.8490    1.3550    0.1750 o         1 MOL     -0.498633
     83 C27         3.4950    0.5410   -2.5690 c3        1 MOL      0.524286
     84 C28         3.2530   -0.1920   -3.9010 c3        1 MOL     -0.267787
     85 O15         2.8050    1.7310   -2.7180 oh        1 MOL     -0.609761
     86 H35         4.7810   -1.2930   -1.4160 hn        1 MOL      0.191090
     87 H36         5.5180    1.1210   -2.8780 h1        1 MOL      0.032553
     88 H37         2.9680   -0.0300   -1.8000 h1        1 MOL      0.114831
     89 H38         1.9390    1.6590   -2.3140 ho        1 MOL      0.317523
     90 H39         2.2140   -0.4220   -4.1530 hc        1 MOL      0.046249
     91 H40         3.7670    0.3380   -4.7030 hc        1 MOL      0.046249
     92 H41         3.7730   -1.1520   -3.8690 hc        1 MOL      0.046249
     93 N9          5.1140    3.0080   -1.1700 n         1 MOL     -0.352458
     94 C29         5.0760    4.0090   -0.0840 c3        1 MOL     -0.181880
     95 C30         3.7230    4.6210    0.1980 c         1 MOL      0.407517
     96 O16         3.5060    5.2560    1.2410 o         1 MOL     -0.567521
     97 C31         6.0510    5.1790   -0.3300 c3        1 MOL      0.271638
     98 C32         5.6990    5.8610   -1.7050 c3        1 MOL      0.076432
     99 C33         7.5550    4.7600   -0.2750 c3        1 MOL     -0.243058
    100 C34         6.4310    7.1330   -2.0430 c3        1 MOL     -0.181909
    101 H42         5.3310    3.3240   -2.0990 hn        1 MOL      0.232301
    102 H43         5.3840    3.6190    0.8920 h1        1 MOL      0.133002
    103 H44         5.8590    5.9450    0.4270 hc        1 MOL     -0.006407
    104 H45         4.6320    6.0460   -1.7250 hc        1 MOL     -0.004451
    105 H46         5.9950    5.2430   -2.5500 hc        1 MOL     -0.004451
    106 H47         7.9090    4.3350   -1.2110 hc        1 MOL      0.059786
    107 H48         8.0470    5.7130   -0.0750 hc        1 MOL      0.059786
    108 H49         7.6250    4.1460    0.6320 hc        1 MOL      0.059786
    109 H50         6.2960    7.8230   -1.2030 hc        1 MOL      0.035298
    110 H51         7.4870    7.0280   -2.2890 hc        1 MOL      0.035298
    111 H52         5.9780    7.5300   -2.9500 hc        1 MOL      0.035298
    112 N10         2.8080    4.2800   -0.6770 n         1 MOL     -0.020028
    113 C35         1.4270    4.8530   -0.8090 c3        1 MOL      0.004552
    114 C36         0.3140    3.8180   -0.8730 c         1 MOL      0.434249
    115 O17         0.4370    2.7520   -1.5870 o         1 MOL     -0.432817
    116 C37         1.3360    5.7100   -2.0300 c3        1 MOL      0.333971
    117 C38         1.9980    5.0440   -3.2370 c3        1 MOL     -0.187416
    118 O18         1.8850    7.0770   -1.9510 oh        1 MOL     -0.677498
    119 H53         3.0260    3.5080   -1.2970 hn        1 MOL     -0.003444
    120 H54         1.3120    5.3730    0.1330 h1        1 MOL      0.049310
    121 H55         0.2640    5.7640   -2.2050 h1        1 MOL     -0.021492
    122 H56         1.5950    7.6210   -2.6830 ho        1 MOL      0.417363
    123 H57         3.0600    4.9200   -3.0460 hc        1 MOL      0.051936
    124 H58         1.4500    4.1990   -3.6510 hc        1 MOL      0.051936
    125 H59         1.8310    5.8020   -4.0090 hc        1 MOL      0.051936
    126 N11        -0.7950    4.0660   -0.1280 n         1 MOL     -0.427545
    127 C39        -1.9990    3.2560    0.0180 c3        1 MOL     -0.020941
    128 C40        -2.8160    3.0540   -1.2420 c         1 MOL      0.494665
    129 O19        -2.8620    3.8660   -2.2020 o         1 MOL     -0.527464
    130 C41        -2.9500    3.8530    1.0950 c3        1 MOL      0.065792
    131 C42        -3.5050    5.1870    0.8720 c3        1 MOL     -0.110229
    132 O20        -2.1430    3.8830    2.2500 oh        1 MOL     -0.552512
    133 H60        -0.7540    4.8700    0.4830 hn        1 MOL      0.278031
    134 H61        -1.7400    2.2220    0.2730 h1        1 MOL      0.128844
    135 H62        -3.7670    3.1600    1.2540 h1        1 MOL      0.162044
    136 H63        -1.7560    4.7590    2.3150 ho        1 MOL      0.374169
    137 H64        -2.7520    5.9710    0.9560 hc        1 MOL      0.036682
    138 H65        -4.0430    5.3370   -0.0660 hc        1 MOL      0.036682
    139 H66        -4.2440    5.4630    1.6180 hc        1 MOL      0.036682
    140 N12        -3.4130    1.8660   -1.2830 n         1 MOL     -0.292934
    141 C43        -4.3650    1.4090   -2.3200 c3        1 MOL     -0.029274
    142 C44        -4.3890   -0.0900   -2.6380 c         1 MOL      0.434680
    143 O21        -5.0850   -0.4520   -3.5950 o         1 MOL     -0.534173
    144 C45        -5.7400    1.7510   -1.8130 c3        1 MOL      0.112395
    145 C46        -6.1540    3.2450   -1.6190 c3        1 MOL      0.052979
    146 C47        -7.5570    3.5760   -2.0990 c3        1 MOL     -0.119196
    147 C48        -8.0500    4.8730   -1.5170 c3        1 MOL      0.148991
    148 N13        -9.5350    5.0400   -1.6360 n4        1 MOL     -0.523833
    149 H67        -3.1150    1.2040   -0.5750 hn        1 MOL      0.106888
    150 H68        -4.2520    1.9590   -3.2500 h1        1 MOL      0.082881
    151 H69        -5.8370    1.2880   -0.8300 hc        1 MOL     -0.011271
    152 H70        -6.4570    1.2320   -2.4580 hc        1 MOL     -0.011271
    153 H71        -5.3680    3.7720   -2.1540 hc        1 MOL     -0.011328
    154 H72        -6.0680    3.4570   -0.5610 hc        1 MOL     -0.011328
    155 H73        -8.2540    2.7860   -1.8060 hc        1 MOL      0.064158
    156 H74        -7.4830    3.5250   -3.1820 hc        1 MOL      0.064158
    157 H75        -7.5630    5.7110   -2.0110 hx        1 MOL      0.063423
    158 H76        -7.9110    4.9920   -0.4430 hx        1 MOL      0.063423
    159 H77        -9.8090    5.8940   -1.1630 hn        1 MOL      0.367544
    160 H78        -9.7910    5.0720   -2.6190 hn        1 MOL      0.367544
    161 H79        -9.9670    4.3000   -1.1090 hn        1 MOL      0.367544
    162 N14        -3.9670   -0.8680   -1.6160 n         1 MOL     -0.003209
    163 C49        -4.0970   -2.3470   -1.6580 c3        1 MOL     -0.422118
    164 C50        -5.5370   -2.7740   -1.5560 c         1 MOL      0.559020
    165 O22        -6.3210   -2.1750   -0.8260 o         1 MOL     -0.520987
    166 C51        -3.1550   -2.9600   -0.5830 c3        1 MOL      0.644766
    167 C52        -3.1250   -4.5350   -0.5090 c3        1 MOL     -0.283223
    168 C53        -2.7430   -5.2100   -1.7250 c         1 MOL      0.687279
    169 O23        -3.6610   -5.5650   -2.4850 o         1 MOL     -0.741814
    170 O24        -1.5490   -5.3880   -2.0990 o         1 MOL     -0.741814
    171 H80        -3.6100   -0.4330   -0.7730 hn        1 MOL      0.065385
    172 H81        -3.7290   -2.7300   -2.6020 h1        1 MOL      0.149189
    173 H82        -3.4070   -2.7060    0.4500 hc        1 MOL     -0.142743
    174 H83        -2.1680   -2.5020   -0.6030 hc        1 MOL     -0.142743
    175 H84        -4.0200   -4.9760   -0.0750 hc        1 MOL      0.061466
    176 H85        -2.3150   -4.8140    0.1710 hc        1 MOL      0.061466
    177 N15        -5.8880   -3.8720   -2.1850 n         1 MOL     -0.442847
    178 C54        -7.2160   -4.4030   -2.4520 c3        1 MOL      0.078935
    179 H86        -7.3120   -5.3880   -1.9950 h1        1 MOL      0.024330
    180 H87        -7.9670   -3.7330   -2.0320 h1        1 MOL      0.024330
    181 H88        -7.3650   -4.4870   -3.5280 h1        1 MOL      0.024330
    182 H89        -5.1300   -4.3750   -2.6310 hn        1 MOL      0.404724
    183 Ca1         0.8600   -5.6820   -2.5910 Ca        1 MOL      1.685670
    184 O25        -0.5390   -4.5180   -4.5350 oh        1 MOL     -0.852026
    185 H90        -0.6580   -3.6680   -4.1210 ho        1 MOL      0.425782
    186 H91        -0.4660   -4.3270   -5.4690 ho        1 MOL      0.425782
    187 O26         1.5980   -7.4180   -4.5870 oh        1 MOL     -0.852026
    188 H92         2.3500   -7.3410   -5.1650 ho        1 MOL      0.425782
    189 H93         1.1370   -8.2030   -4.8840 ho        1 MOL      0.425782
    190 O27         2.5370   -4.4150   -4.2140 oh        1 MOL     -0.852026
    191 H94         2.1470   -3.8870   -4.9090 ho        1 MOL      0.425782
    192 H95         3.4770   -4.2470   -4.2950 ho        1 MOL      0.425782
@<TRIPOS>BOND
     1    1    2 1   
     2    1    4 1   
     3    1    5 1   
     4    1    6 1   
     5    2    3 2   
     6    2    7 1   
     7    7    8 1   
     8    7   15 1   
     9    8    9 1   
    10    8   11 1   
    11    8   16 1   
    12    9   10 2   
    13    9   19 1   
    14   11   12 1   
    15   11   17 1   
    16   11   18 1   
    17   12   13 1   
    18   12   14 1   
    19   19   20 1   
    20   19   28 1   
    21   20   21 1   
    22   20   23 1   
    23   20   29 1   
    24   21   22 2   
    25   21   41 1   
    26   23   24 1   
    27   23   30 1   
    28   23   31 1   
    29   24   25 1   
    30   24   32 1   
    31   24   33 1   
    32   25   26 1   
    33   25   34 1   
    34   25   35 1   
    35   26   27 1   
    36   26   36 1   
    37   26   37 1   
    38   27   38 1   
    39   27   39 1   
    40   27   40 1   
    41   41   42 1   
    42   41   49 1   
    43   42   43 1   
    44   42   45 1   
    45   42   50 1   
    46   43   44 2   
    47   43   53 1   
    48   45   46 1   
    49   45   51 1   
    50   45   52 1   
    51   46   47 1   
    52   46   48 1   
    53   53   54 1   
    54   53   57 1   
    55   54   55 1   
    56   54   58 1   
    57   54   59 1   
    58   55   56 2   
    59   55   60 1   
    60   60   61 1   
    61   60   68 1   
    62   61   62 1   
    63   61   64 1   
    64   61   69 1   
    65   62   63 2   
    66   62   72 1   
    67   64   65 1   
    68   64   70 1   
    69   64   71 1   
    70   65   66 1   
    71   65   67 1   
    72   72   73 1   
    73   72   76 1   
    74   73   74 1   
    75   73   77 1   
    76   73   78 1   
    77   74   75 2   
    78   74   79 1   
    79   79   80 1   
    80   79   86 1   
    81   80   81 1   
    82   80   83 1   
    83   80   87 1   
    84   81   82 2   
    85   81   93 1   
    86   83   84 1   
    87   83   85 1   
    88   83   88 1   
    89   84   90 1   
    90   84   91 1   
    91   84   92 1   
    92   85   89 1   
    93   93   94 1   
    94   93  101 1   
    95   94   95 1   
    96   94   97 1   
    97   94  102 1   
    98   95   96 2   
    99   95  112 1   
   100   97   98 1   
   101   97   99 1   
   102   97  103 1   
   103   98  100 1   
   104   98  104 1   
   105   98  105 1   
   106   99  106 1   
   107   99  107 1   
   108   99  108 1   
   109  100  109 1   
   110  100  110 1   
   111  100  111 1   
   112  112  113 1   
   113  112  119 1   
   114  113  114 1   
   115  113  116 1   
   116  113  120 1   
   117  114  115 2   
   118  114  126 1   
   119  116  117 1   
   120  116  118 1   
   121  116  121 1   
   122  117  123 1   
   123  117  124 1   
   124  117  125 1   
   125  118  122 1   
   126  126  127 1   
   127  126  133 1   
   128  127  128 1   
   129  127  130 1   
   130  127  134 1   
   131  128  129 2   
   132  128  140 1   
   133  130  131 1   
   134  130  132 1   
   135  130  135 1   
   136  131  137 1   
   137  131  138 1   
   138  131  139 1   
   139  132  136 1   
   140  140  141 1   
   141  140  149 1   
   142  141  142 1   
   143  141  144 1   
   144  141  150 1   
   145  142  143 2   
   146  142  162 1   
   147  144  145 1   
   148  144  151 1   
   149  144  152 1   
   150  145  146 1   
   151  145  153 1   
   152  145  154 1   
   153  146  147 1   
   154  146  155 1   
   155  146  156 1   
   156  147  148 1   
   157  147  157 1   
   158  147  158 1   
   159  148  159 1   
   160  148  160 1   
   161  148  161 1   
   162  162  163 1   
   163  162  171 1   
   164  163  164 1   
   165  163  166 1   
   166  163  172 1   
   167  164  165 2   
   168  164  177 1   
   169  166  167 1   
   170  166  173 1   
   171  166  174 1   
   172  167  168 1   
   173  167  175 1   
   174  167  176 1   
   175  168  169 1   
   176  168  170 1   
   177  177  178 1   
   178  177  182 1   
   179  178  179 1   
   180  178  180 1   
   181  178  181 1   
   182  184  185 1   
   183  184  186 1   
   184  187  188 1   
   185  187  189 1   
   186  190  191 1   
   187  190  192 1   
@<TRIPOS>SUBSTRUCTURE
     1 MOL         1 TEMP              0 ****  ****    0 ROOT
