@<TRIPOS>MOLECULE
MOL
  192   187     1     0     0
SMALL
resp


@<TRIPOS>ATOM
      1 C1          9.5520    0.8780    1.8240 c3        1 MOL     -0.429851
      2 C2          8.3730    0.4310    1.0390 c         1 MOL      0.740795
      3 O1          7.3130    0.1770    1.6150 o         1 MOL     -0.635931
      4 H1          9.4270    0.5840    2.8660 hc        1 MOL      0.108693
      5 H2         10.4530    0.4140    1.4220 hc        1 MOL      0.108693
      6 H3          9.6420    1.9620    1.7610 hc        1 MOL      0.108693
      7 N1          8.5200    0.4060   -0.2830 n         1 MOL     -0.554819
      8 C3          7.4330    0.3810   -1.3020 c3        1 MOL      0.049953
      9 C4          6.8920   -0.9620   -1.5010 c         1 MOL      0.489922
     10 O2          6.7000   -1.3850   -2.6520 o         1 MOL     -0.475077
     11 C5          7.7230    1.3320   -2.5450 c3        1 MOL     -0.148883
     12 C6          9.0520    0.9560   -3.2370 c         1 MOL      0.660577
     13 O3          9.2260    1.2830   -4.4340 o         1 MOL     -0.620666
     14 O4          9.9280    0.2950   -2.6830 o         1 MOL     -0.620666
     15 H4          9.4400    0.4930   -0.7050 hn        1 MOL      0.268708
     16 H5          6.5680    0.9200   -0.9100 h1        1 MOL      0.115459
     17 H6          7.7440    2.3850   -2.2880 hc        1 MOL      0.059984
     18 H7          6.9720    1.3100   -3.3310 hc        1 MOL      0.059984
     19 N2          6.5980   -1.6680   -0.4410 n         1 MOL     -0.293460
     20 C7          6.2250   -3.0850   -0.4850 c3        1 MOL      0.103286
     21 C8          4.7580   -3.3990   -0.7840 c         1 MOL      0.446105
     22 O5          4.5000   -4.2920   -1.5510 o         1 MOL     -0.529771
     23 C9          6.5920   -3.7240    0.8830 c3        1 MOL      0.076262
     24 C10         8.0760   -3.7000    1.3300 c3        1 MOL      0.001908
     25 C11         8.3680   -4.7830    2.3040 c3        1 MOL     -0.028570
     26 C12         9.8140   -4.7640    2.7620 c3        1 MOL      0.083575
     27 N3         10.1780   -5.8770    3.5870 n4        1 MOL     -0.093244
     28 H8          6.9180   -1.3140    0.4470 hn        1 MOL      0.126457
     29 H9          6.7420   -3.5570   -1.3170 h1        1 MOL      0.050912
     30 H10         6.2980   -4.7730    0.7660 hc        1 MOL     -0.022368
     31 H11         5.9110   -3.3940    1.6670 hc        1 MOL     -0.022368
     32 H12         8.2740   -2.6990    1.7210 hc        1 MOL      0.016540
     33 H13         8.6760   -3.8910    0.4360 hc        1 MOL      0.016540
     34 H14         8.2220   -5.7350    1.7880 hc        1 MOL      0.025592
     35 H15         7.7190   -4.7080    3.1710 hc        1 MOL      0.025592
     36 H16         9.9470   -3.9140    3.4340 hx        1 MOL      0.044702
     37 H17        10.5590   -4.6990    1.9680 hx        1 MOL      0.044702
     38 H18         9.5040   -6.1220    4.2950 hn        1 MOL      0.198208
     39 H19        10.2950   -6.7240    3.0380 hn        1 MOL      0.198208
     40 H20        11.0980   -5.8950    3.9930 hn        1 MOL      0.198208
     41 N4          3.7790   -2.6130   -0.3570 n         1 MOL     -0.316729
     42 C13         3.7830   -1.5720    0.6980 c3        1 MOL      0.013262
     43 C14         3.7910   -0.1430    0.0900 c         1 MOL      0.037560
     44 O6          3.7450    0.1020   -1.0980 o         1 MOL     -0.357772
     45 C15         2.4590   -1.8800    1.5420 c3        1 MOL     -0.463225
     46 C16         1.2160   -2.2320    0.6830 c         1 MOL      0.830463
     47 O7          0.7670   -1.2440    0.1160 o         1 MOL     -0.699296
     48 O8          0.8410   -3.4240    0.4330 o         1 MOL     -0.699296
     49 H21         2.8510   -2.8550   -0.6670 hn        1 MOL      0.339437
     50 H22         4.6510   -1.7120    1.3430 h1        1 MOL      0.160242
     51 H23         2.3320   -0.9690    2.1130 hc        1 MOL      0.080086
     52 H24         2.5960   -2.6980    2.2630 hc        1 MOL      0.080086
     53 N5          3.8580    0.8680    0.9600 n         1 MOL     -0.057780
     54 C17         3.9370    2.2170    0.4420 c3        1 MOL     -0.033115
     55 C18         2.6720    2.7690   -0.3130 c         1 MOL      0.732744
     56 O9          1.6640    2.0690   -0.4730 o         1 MOL     -0.709436
     57 H25         4.0720    0.7940    1.9490 hn        1 MOL      0.230377
     58 H26         4.8160    2.3290   -0.1800 h1        1 MOL      0.020672
     59 H27         4.0450    2.8310    1.3380 h1        1 MOL      0.020672
     60 N6          2.7520    4.0270   -0.7400 n         1 MOL     -0.549893
     61 C19         1.6770    4.7520   -1.3820 c3        1 MOL      0.313355
     62 C20         1.8780    6.2540   -1.3130 c         1 MOL      0.434877
     63 O10         3.0010    6.6920   -1.0460 o         1 MOL     -0.527461
     64 C21         1.6950    4.3250   -2.8210 c3        1 MOL     -0.249585
     65 C22         1.2320    2.9260   -3.2090 c         1 MOL      0.683505
     66 O11         0.1270    2.5500   -2.7980 o         1 MOL     -0.677337
     67 O12         1.8850    2.2330   -4.0040 o         1 MOL     -0.677337
     68 H28         3.6360    4.5010   -0.5640 hn        1 MOL      0.297947
     69 H29         0.7620    4.5100   -0.8540 h1        1 MOL     -0.032608
     70 H30         2.6590    4.5680   -3.2480 hc        1 MOL      0.067750
     71 H31         1.0070    5.0190   -3.3130 hc        1 MOL      0.067750
     72 N7          0.8370    7.0940   -1.4880 n         1 MOL     -0.460383
     73 C23        -0.5740    6.8420   -1.7100 c3        1 MOL     -0.008394
     74 C24        -1.3200    6.3240   -0.4530 c         1 MOL      0.586413
     75 O13        -0.9320    6.7510    0.6780 o         1 MOL     -0.548755
     76 H32         1.0900    8.0750   -1.4160 hn        1 MOL      0.320199
     77 H33        -0.6870    6.2240   -2.5980 h1        1 MOL      0.068490
     78 H34        -1.0500    7.8030   -1.9320 h1        1 MOL      0.068490
     79 N8         -2.3600    5.5940   -0.6400 n         1 MOL     -0.531612
     80 C25        -2.9140    4.7030    0.4300 c3        1 MOL      0.142042
     81 C26        -1.8960    3.6940    0.9290 c         1 MOL      0.515090
     82 O14        -1.1310    3.1290    0.0740 o         1 MOL     -0.540172
     83 C27        -4.2180    4.0300    0.0280 c3        1 MOL      0.113113
     84 C28        -4.6610    2.9640    1.0000 c3        1 MOL     -0.083182
     85 O15        -4.2480    3.6160   -1.3380 oh        1 MOL     -0.449689
     86 H35        -2.6430    5.3770   -1.5910 hn        1 MOL      0.282596
     87 H36        -3.2090    5.3730    1.2370 h1        1 MOL      0.046806
     88 H37        -5.0030    4.7750    0.1720 h1        1 MOL      0.028231
     89 H38        -5.1140    3.8450   -1.6810 ho        1 MOL      0.356166
     90 H39        -3.9950    2.1030    0.9600 hc        1 MOL      0.019180
     91 H40        -4.7940    3.2950    2.0290 hc        1 MOL      0.019180
     92 H41        -5.6780    2.6830    0.7550 hc        1 MOL      0.019180
     93 N9         -1.8270    3.4530    2.2440 n         1 MOL     -0.476878
     94 C29        -1.0530    2.3900    2.9580 c3        1 MOL      0.120341
     95 C30        -1.4350    0.9760    2.5580 c         1 MOL      0.286023
     96 O16        -1.4580    0.5810    1.3720 o         1 MOL     -0.455572
     97 C31         0.4700    2.6210    2.8180 c3        1 MOL      0.325374
     98 C32         0.9260    4.1020    3.0790 c3        1 MOL      0.096505
     99 C33         1.4370    1.6400    3.3700 c3        1 MOL     -0.709007
    100 C34         1.0150    4.4210    4.5700 c3        1 MOL     -0.229059
    101 H42        -2.2540    4.1190    2.8540 hn        1 MOL      0.276512
    102 H43        -1.3120    2.4500    4.0280 h1        1 MOL      0.015678
    103 H44         0.6040    2.5760    1.7320 hc        1 MOL     -0.037444
    104 H45         0.2620    4.8860    2.7150 hc        1 MOL      0.018069
    105 H46         1.9110    4.2050    2.6270 hc        1 MOL      0.018069
    106 H47         1.3690    0.7190    2.7890 hc        1 MOL      0.162445
    107 H48         2.4920    1.9110    3.3060 hc        1 MOL      0.162445
    108 H49         1.1980    1.3400    4.3920 hc        1 MOL      0.162445
    109 H50         0.1460    4.0700    5.1230 hc        1 MOL      0.043703
    110 H51         1.8960    3.9370    4.9990 hc        1 MOL      0.043703
    111 H52         1.0820    5.4960    4.6940 hc        1 MOL      0.043703
    112 N10        -1.4540    0.0520    3.5710 n         1 MOL     -0.282151
    113 C35        -1.6820   -1.4020    3.3520 c3        1 MOL     -0.037244
    114 C36        -3.0930   -1.7590    2.9110 c         1 MOL      0.471162
    115 O17        -3.3440   -2.8730    2.3440 o         1 MOL     -0.507481
    116 C37        -1.3310   -2.1600    4.6460 c3        1 MOL      0.310636
    117 C38        -1.2350   -3.6990    4.4450 c3        1 MOL     -0.336029
    118 O18        -2.3370   -1.8780    5.6350 oh        1 MOL     -0.665002
    119 H53        -1.1990    0.3540    4.4920 hn        1 MOL      0.231884
    120 H54        -1.0000   -1.7570    2.5800 h1        1 MOL      0.114101
    121 H55        -0.3540   -1.8020    4.9830 h1        1 MOL      0.024466
    122 H56        -2.0930   -2.1230    6.5300 ho        1 MOL      0.415271
    123 H57        -0.8190   -4.1470    5.3450 hc        1 MOL      0.097270
    124 H58        -2.1550   -4.1620    4.0890 hc        1 MOL      0.097270
    125 H59        -0.4050   -3.8660    3.7430 hc        1 MOL      0.097270
    126 N11        -4.0490   -0.8410    3.1410 n         1 MOL     -0.127024
    127 C39        -5.4950   -0.8190    2.7220 c3        1 MOL     -0.268439
    128 C40        -5.6690   -1.0570    1.2150 c         1 MOL      0.406765
    129 O19        -5.0590   -0.3340    0.3710 o         1 MOL     -0.484706
    130 C41        -6.1750    0.4830    3.1110 c3        1 MOL      0.464330
    131 C42        -7.6950    0.5170    2.7470 c3        1 MOL     -0.273366
    132 O20        -6.1930    0.6740    4.4900 oh        1 MOL     -0.621244
    133 H60        -3.8140   -0.1650    3.8590 hn        1 MOL      0.121295
    134 H61        -5.9030   -1.7110    3.2050 h1        1 MOL      0.094952
    135 H62        -5.6580    1.3230    2.6510 h1        1 MOL      0.003106
    136 H63        -5.2950    0.5580    4.8180 ho        1 MOL      0.392179
    137 H64        -7.8410    0.4600    1.6640 hc        1 MOL      0.083065
    138 H65        -8.2010   -0.3120    3.2500 hc        1 MOL      0.083065
    139 H66        -8.1230    1.4700    3.0420 hc        1 MOL      0.083065
    140 N12        -6.5190   -1.9990    0.9580 n         1 MOL     -0.273776
    141 C43        -6.9480   -2.4580   -0.3430 c3        1 MOL      0.040061
    142 C44        -5.8170   -2.3960   -1.3790 c         1 MOL      0.428082
    143 O21        -5.9600   -1.7230   -2.4450 o         1 MOL     -0.497625
    144 C45        -8.2280   -1.7620   -0.7000 c3        1 MOL     -0.337605
    145 C46        -9.3440   -1.8920    0.2330 c3        1 MOL      0.123898
    146 C47       -10.5210   -0.8730   -0.1990 c3        1 MOL     -0.169806
    147 C48       -11.3170   -1.2490   -1.4110 c3        1 MOL      0.223762
    148 N13       -12.2560   -0.1000   -1.7130 n4        1 MOL     -0.344019
    149 H67        -6.7640   -2.5790    1.7510 hn        1 MOL      0.266280
    150 H68        -7.0180   -3.5360   -0.1570 h1        1 MOL      0.068978
    151 H69        -8.5480   -2.0300   -1.7100 hc        1 MOL      0.133009
    152 H70        -8.0510   -0.6990   -0.8670 hc        1 MOL      0.133009
    153 H71        -9.1250   -1.6500    1.2680 hc        1 MOL      0.009773
    154 H72        -9.7620   -2.9020    0.2240 hc        1 MOL      0.009773
    155 H73       -10.0500    0.0770   -0.4400 hc        1 MOL      0.037100
    156 H74       -11.2550   -0.7940    0.6010 hc        1 MOL      0.037100
    157 H75       -11.8470   -2.1650   -1.1720 hx        1 MOL      0.037287
    158 H76       -10.7470   -1.4970   -2.3060 hx        1 MOL      0.037287
    159 H77       -13.0070   -0.0710   -1.0370 hn        1 MOL      0.238592
    160 H78       -11.7080    0.7450   -1.6600 hn        1 MOL      0.238592
    161 H79       -12.6050   -0.1520   -2.6670 hn        1 MOL      0.238592
    162 N14        -4.6280   -2.9700   -1.0820 n         1 MOL     -0.329935
    163 C49        -3.4850   -2.9410   -2.0370 c3        1 MOL      0.105576
    164 C50        -2.2300   -2.9110   -1.1910 c         1 MOL      0.343643
    165 O22        -1.6590   -1.8050   -1.1290 o         1 MOL     -0.612005
    166 C51        -3.4660   -4.0060   -3.1330 c3        1 MOL      0.026513
    167 C52        -4.4550   -3.7130   -4.2190 c3        1 MOL     -0.313355
    168 C53        -4.2860   -4.8030   -5.2890 c         1 MOL      0.726068
    169 O23        -5.0850   -5.7400   -5.3880 o         1 MOL     -0.628368
    170 O24        -3.2850   -4.7760   -6.0510 o         1 MOL     -0.628368
    171 H80        -4.5600   -3.7060   -0.3920 hn        1 MOL      0.247296
    172 H81        -3.4490   -1.9810   -2.5530 h1        1 MOL      0.111747
    173 H82        -3.7530   -4.9480   -2.6580 hc        1 MOL      0.033226
    174 H83        -2.5000   -4.1600   -3.6150 hc        1 MOL      0.033226
    175 H84        -4.2860   -2.7250   -4.6580 hc        1 MOL      0.058873
    176 H85        -5.5090   -3.7330   -3.9220 hc        1 MOL      0.058873
    177 N15        -1.7740   -3.9130   -0.4110 n         1 MOL     -0.090036
    178 C54        -2.0320   -5.3590   -0.3450 c3        1 MOL     -0.147636
    179 H86        -2.4080   -5.7050   -1.3080 h1        1 MOL      0.064970
    180 H87        -1.1060   -5.8830   -0.1070 h1        1 MOL      0.064970
    181 H88        -2.7730   -5.5620    0.4290 h1        1 MOL      0.064970
    182 H89        -1.0790   -3.5820    0.2430 hn        1 MOL      0.234553
    183 Ca1        -0.4710    0.6770   -1.0690 Ca        1 MOL      1.799123
    184 O25         1.6840   -0.1110   -2.5450 oh        1 MOL     -0.874972
    185 H90         2.0930    0.4880   -3.1660 ho        1 MOL      0.431940
    186 H91         2.2850   -0.1140   -1.7910 ho        1 MOL      0.431940
    187 O26        -1.6910    0.1310   -3.5230 oh        1 MOL     -0.874972
    188 H92        -1.8700    0.5710   -4.3570 ho        1 MOL      0.431940
    189 H93        -1.3500   -0.7200   -3.7670 ho        1 MOL      0.431940
    190 O27        -3.0540    0.9010   -1.2200 oh        1 MOL     -0.874972
    191 H94        -3.6440    0.6140   -1.9130 ho        1 MOL      0.431940
    192 H95        -3.4570    0.5780   -0.4140 ho        1 MOL      0.431940
@<TRIPOS>BOND
     1    1    2 1   
     2    1    4 1   
     3    1    5 1   
     4    1    6 1   
     5    2    3 2   
     6    2    7 1   
     7    7    8 1   
     8    7   15 1   
     9    8    9 1   
    10    8   11 1   
    11    8   16 1   
    12    9   10 2   
    13    9   19 1   
    14   11   12 1   
    15   11   17 1   
    16   11   18 1   
    17   12   13 1   
    18   12   14 1   
    19   19   20 1   
    20   19   28 1   
    21   20   21 1   
    22   20   23 1   
    23   20   29 1   
    24   21   22 2   
    25   21   41 1   
    26   23   24 1   
    27   23   30 1   
    28   23   31 1   
    29   24   25 1   
    30   24   32 1   
    31   24   33 1   
    32   25   26 1   
    33   25   34 1   
    34   25   35 1   
    35   26   27 1   
    36   26   36 1   
    37   26   37 1   
    38   27   38 1   
    39   27   39 1   
    40   27   40 1   
    41   41   42 1   
    42   41   49 1   
    43   42   43 1   
    44   42   45 1   
    45   42   50 1   
    46   43   44 2   
    47   43   53 1   
    48   45   46 1   
    49   45   51 1   
    50   45   52 1   
    51   46   47 1   
    52   46   48 1   
    53   53   54 1   
    54   53   57 1   
    55   54   55 1   
    56   54   58 1   
    57   54   59 1   
    58   55   56 2   
    59   55   60 1   
    60   60   61 1   
    61   60   68 1   
    62   61   62 1   
    63   61   64 1   
    64   61   69 1   
    65   62   63 2   
    66   62   72 1   
    67   64   65 1   
    68   64   70 1   
    69   64   71 1   
    70   65   66 1   
    71   65   67 1   
    72   72   73 1   
    73   72   76 1   
    74   73   74 1   
    75   73   77 1   
    76   73   78 1   
    77   74   75 2   
    78   74   79 1   
    79   79   80 1   
    80   79   86 1   
    81   80   81 1   
    82   80   83 1   
    83   80   87 1   
    84   81   82 2   
    85   81   93 1   
    86   83   84 1   
    87   83   85 1   
    88   83   88 1   
    89   84   90 1   
    90   84   91 1   
    91   84   92 1   
    92   85   89 1   
    93   93   94 1   
    94   93  101 1   
    95   94   95 1   
    96   94   97 1   
    97   94  102 1   
    98   95   96 2   
    99   95  112 1   
   100   97   98 1   
   101   97   99 1   
   102   97  103 1   
   103   98  100 1   
   104   98  104 1   
   105   98  105 1   
   106   99  106 1   
   107   99  107 1   
   108   99  108 1   
   109  100  109 1   
   110  100  110 1   
   111  100  111 1   
   112  112  113 1   
   113  112  119 1   
   114  113  114 1   
   115  113  116 1   
   116  113  120 1   
   117  114  115 2   
   118  114  126 1   
   119  116  117 1   
   120  116  118 1   
   121  116  121 1   
   122  117  123 1   
   123  117  124 1   
   124  117  125 1   
   125  118  122 1   
   126  126  127 1   
   127  126  133 1   
   128  127  128 1   
   129  127  130 1   
   130  127  134 1   
   131  128  129 2   
   132  128  140 1   
   133  130  131 1   
   134  130  132 1   
   135  130  135 1   
   136  131  137 1   
   137  131  138 1   
   138  131  139 1   
   139  132  136 1   
   140  140  141 1   
   141  140  149 1   
   142  141  142 1   
   143  141  144 1   
   144  141  150 1   
   145  142  143 2   
   146  142  162 1   
   147  144  145 1   
   148  144  151 1   
   149  144  152 1   
   150  145  146 1   
   151  145  153 1   
   152  145  154 1   
   153  146  147 1   
   154  146  155 1   
   155  146  156 1   
   156  147  148 1   
   157  147  157 1   
   158  147  158 1   
   159  148  159 1   
   160  148  160 1   
   161  148  161 1   
   162  162  163 1   
   163  162  171 1   
   164  163  164 1   
   165  163  166 1   
   166  163  172 1   
   167  164  165 2   
   168  164  177 1   
   169  166  167 1   
   170  166  173 1   
   171  166  174 1   
   172  167  168 1   
   173  167  175 1   
   174  167  176 1   
   175  168  169 1   
   176  168  170 1   
   177  177  178 1   
   178  177  182 1   
   179  178  179 1   
   180  178  180 1   
   181  178  181 1   
   182  184  185 1   
   183  184  186 1   
   184  187  188 1   
   185  187  189 1   
   186  190  191 1   
   187  190  192 1   
@<TRIPOS>SUBSTRUCTURE
     1 MOL         1 TEMP              0 ****  ****    0 ROOT
