@<TRIPOS>MOLECULE
MOL
  181   177     1     0     0
SMALL
resp


@<TRIPOS>ATOM
      1 C1          6.7800   -0.4130    6.4640 c3        1 MOL     -0.229959
      2 C2          6.1280    0.1590    5.2100 c         1 MOL      0.648256
      3 O1          4.9360    0.4130    5.2600 o         1 MOL     -0.551159
      4 H1          6.8960   -1.4900    6.3530 hc        1 MOL      0.054303
      5 H2          7.7600    0.0450    6.6040 hc        1 MOL      0.054303
      6 H3          6.1520   -0.2020    7.3290 hc        1 MOL      0.054303
      7 N1          6.7830    0.1120    4.0400 n         1 MOL     -0.563850
      8 C3          8.2160   -0.2860    3.7620 c3        1 MOL      0.103778
      9 C4          8.3150   -1.7050    3.0800 c         1 MOL      0.536509
     10 O2          7.4390   -2.5370    3.1770 o         1 MOL     -0.437992
     11 C5          8.9510    0.8070    2.9130 c3        1 MOL      0.020328
     12 C6          8.3010    1.1540    1.5900 c         1 MOL      0.421420
     13 O3          7.4090    2.0500    1.5380 o         1 MOL     -0.604828
     14 O4          8.4980    0.4160    0.5940 o         1 MOL     -0.604828
     15 H4          6.2240    0.2410    3.2050 hn        1 MOL      0.334175
     16 H5          8.8300   -0.3000    4.6630 h1        1 MOL      0.051713
     17 H6          9.9800    0.4730    2.8160 hc        1 MOL     -0.017217
     18 H7          9.0480    1.7530    3.4490 hc        1 MOL     -0.017217
     19 N2          9.4700   -1.9650    2.4150 n         1 MOL     -0.751832
     20 C7          9.7600   -3.2080    1.7070 c3        1 MOL      0.466020
     21 C8          8.8130   -3.5370    0.5790 c         1 MOL      0.266724
     22 O5          8.8980   -4.6520    0.1090 o         1 MOL     -0.528884
     23 C9         10.1800   -4.2950    2.7240 c3        1 MOL     -0.275717
     24 H8         10.1830   -1.2530    2.3390 hn        1 MOL      0.356120
     25 H9         10.7200   -3.0080    1.2400 h1        1 MOL     -0.010618
     26 H10         9.3480   -4.6550    3.3250 hc        1 MOL      0.070338
     27 H11        10.6100   -5.1720    2.2250 hc        1 MOL      0.070338
     28 H12        10.9570   -3.8680    3.3620 hc        1 MOL      0.070338
     29 N3          7.9900   -2.6220    0.0410 n         1 MOL     -0.183309
     30 C10         6.8250   -2.9460   -0.8170 c3        1 MOL      0.438633
     31 C11         6.6960   -2.0100   -2.0530 c         1 MOL      0.124485
     32 O6          7.1590   -0.9150   -2.0670 o         1 MOL     -0.491130
     33 C12         5.4870   -2.9050   -0.0630 c3        1 MOL     -0.171395
     34 C13         5.2690   -1.6310    0.7110 c         1 MOL      0.542835
     35 O7          4.4880   -1.6830    1.6580 o         1 MOL     -0.605981
     36 O8          5.6460   -0.4760    0.2950 o         1 MOL     -0.605981
     37 H13         8.1640   -1.6340    0.2000 hn        1 MOL      0.113793
     38 H14         7.0020   -3.9530   -1.2140 h1        1 MOL     -0.059695
     39 H15         5.5140   -3.6830    0.7040 hc        1 MOL      0.028412
     40 H16         4.6560   -3.1270   -0.7350 hc        1 MOL      0.028412
     41 N4          6.0670   -2.5030   -3.1110 n         1 MOL     -0.152851
     42 C14         5.6820   -1.7840   -4.3460 c3        1 MOL     -0.421769
     43 C15         4.2790   -1.1240   -4.1790 c         1 MOL      0.650417
     44 O9          3.9320   -0.3340   -5.0290 o         1 MOL     -0.524913
     45 H17         5.7670   -3.4730   -3.0370 hn        1 MOL      0.237148
     46 H18         5.7630   -2.4010   -5.2420 h1        1 MOL      0.187287
     47 H19         6.4670   -1.0380   -4.4440 h1        1 MOL      0.187287
     48 N5          3.4730   -1.3720   -3.1110 n         1 MOL     -0.409835
     49 C16         2.3800   -0.4610   -2.6380 c3        1 MOL     -0.351562
     50 C17         2.8030    0.9830   -2.3880 c         1 MOL      0.750927
     51 O10         3.9560    1.3000   -2.0360 o         1 MOL     -0.562157
     52 C18         1.5960   -1.1570   -1.5070 c3        1 MOL     -0.095845
     53 C19         0.7870   -2.3570   -1.8680 c         1 MOL      0.606818
     54 N6          0.6920   -3.2760   -0.9110 n         1 MOL     -0.718645
     55 O11         0.2290   -2.4830   -2.9670 o         1 MOL     -0.509433
     56 H20         3.7070   -2.2070   -2.6020 hn        1 MOL      0.284744
     57 H21         1.6740   -0.2800   -3.4460 h1        1 MOL      0.162875
     58 H22         1.1330   -0.4670   -0.8010 hc        1 MOL      0.057240
     59 H23         2.3800   -1.4440   -0.7920 hc        1 MOL      0.057240
     60 H24         1.3510   -3.1760   -0.1490 hn        1 MOL      0.359836
     61 H25         0.3340   -4.1940   -1.1420 hn        1 MOL      0.359836
     62 N7          1.9420    1.9950   -2.6290 n         1 MOL     -0.421726
     63 C20         2.4750    3.2960   -3.0070 c3        1 MOL     -0.020334
     64 C21         1.3870    4.3860   -3.2320 c         1 MOL      0.625043
     65 O12         1.3770    4.9450   -4.2990 o         1 MOL     -0.580950
     66 H26         0.9930    1.8330   -2.9300 hn        1 MOL      0.304315
     67 H27         3.0820    3.0890   -3.8890 h1        1 MOL      0.053202
     68 H28         3.1920    3.7000   -2.2910 h1        1 MOL      0.053202
     69 N8          0.5020    4.7490   -2.3030 n         1 MOL     -0.460090
     70 C22         0.3520    4.3490   -0.8960 c3        1 MOL     -0.235867
     71 C23        -1.0340    3.7410   -0.4800 c         1 MOL      0.768409
     72 O13        -1.9820    3.9560   -1.2480 o         1 MOL     -0.527341
     73 C24         0.7680    5.5160    0.0460 c3        1 MOL      0.511650
     74 C25         2.2370    5.9550   -0.2660 c3        1 MOL     -0.488353
     75 O14        -0.1030    6.5780   -0.1170 oh        1 MOL     -0.605813
     76 H29        -0.1540    5.4090   -2.7050 hn        1 MOL      0.310833
     77 H30         1.0440    3.5330   -0.7370 h1        1 MOL      0.011576
     78 H31         0.7570    5.1330    1.0720 h1        1 MOL      0.022010
     79 H32         0.1450    6.9190   -0.9740 ho        1 MOL      0.392524
     80 H33         2.8970    5.2120    0.1730 hc        1 MOL      0.111956
     81 H34         2.4270    6.1880   -1.3070 hc        1 MOL      0.111956
     82 H35         2.4850    6.8480    0.3150 hc        1 MOL      0.111956
     83 N9         -1.1330    2.9670    0.5710 n         1 MOL     -0.657633
     84 C26        -2.3770    2.4120    1.1400 c3        1 MOL     -0.217386
     85 C27        -3.1270    3.6050    1.8730 c         1 MOL      0.795246
     86 O15        -2.6270    4.1500    2.8850 o         1 MOL     -0.617824
     87 C28        -2.0510    1.2030    2.0250 c3        1 MOL      0.072528
     88 C29        -1.3510    0.1590    1.0450 c3        1 MOL      0.028081
     89 C30        -3.2130    0.4970    2.5990 c3        1 MOL     -0.299216
     90 C31        -1.1050   -1.2940    1.6650 c3        1 MOL     -0.310430
     91 H36        -0.3490    2.9050    1.2100 hn        1 MOL      0.344166
     92 H37        -3.0360    2.0040    0.3800 h1        1 MOL      0.175620
     93 H38        -1.3570    1.4370    2.8280 hc        1 MOL      0.042910
     94 H39        -0.3610    0.5370    0.7960 hc        1 MOL      0.040319
     95 H40        -1.9220    0.0100    0.1300 hc        1 MOL      0.040319
     96 H41        -3.8350    0.0120    1.8460 hc        1 MOL      0.090010
     97 H42        -2.8180   -0.2210    3.3200 hc        1 MOL      0.090010
     98 H43        -3.8490    1.2220    3.1040 hc        1 MOL      0.090010
     99 H44        -2.0560   -1.8280    1.6550 hc        1 MOL      0.079641
    100 H45        -0.3400   -1.8710    1.1460 hc        1 MOL      0.079641
    101 H46        -0.9070   -1.1840    2.7310 hc        1 MOL      0.079641
    102 N10        -4.3080    4.0480    1.4440 n         1 MOL     -0.652294
    103 C32        -5.1420    3.4720    0.3730 c3        1 MOL      0.273265
    104 C33        -6.1510    2.4650    0.9380 c         1 MOL      0.665893
    105 O16        -6.1000    1.9950    2.0870 o         1 MOL     -0.577503
    106 C34        -5.6950    4.5890   -0.5570 c3        1 MOL     -0.198205
    107 C35        -6.6940    5.4350    0.1440 c         1 MOL      0.679263
    108 O17        -7.8650    5.1090   -0.0010 o         1 MOL     -0.700331
    109 O18        -6.3340    6.3060    0.9810 o         1 MOL     -0.700331
    110 H47        -4.8610    4.5800    2.1100 hn        1 MOL      0.340322
    111 H48        -4.5340    2.9240   -0.3560 h1        1 MOL     -0.020740
    112 H49        -6.1490    4.1820   -1.4670 hc        1 MOL      0.031935
    113 H50        -4.8430    5.1270   -0.9600 hc        1 MOL      0.031935
    114 N11        -7.0270    2.0020    0.0420 n         1 MOL     -0.692000
    115 C36        -7.9790    0.8670    0.3000 c3        1 MOL      0.278111
    116 C37        -8.4990    0.1590   -0.9630 c         1 MOL      0.357145
    117 O19        -9.1290    0.7850   -1.7660 o         1 MOL     -0.515539
    118 C38        -9.1220    1.4370    1.1110 c3        1 MOL     -0.165217
    119 C39       -10.0390    0.4370    1.8140 ca        1 MOL      0.083938
    120 C40       -11.0010   -0.3190    1.0940 ca        1 MOL     -0.172350
    121 C41       -10.0710    0.4510    3.2130 ca        1 MOL     -0.172350
    122 C42       -11.9230   -1.1460    1.7870 ca        1 MOL     -0.087588
    123 C43       -11.0790   -0.3120    3.8610 ca        1 MOL     -0.087588
    124 C44       -11.9540   -1.1930    3.1840 ca        1 MOL     -0.189470
    125 H51        -6.9310    2.3020   -0.9100 hn        1 MOL      0.348710
    126 H52        -7.4430    0.1210    0.8840 h1        1 MOL      0.016528
    127 H53        -9.6740    2.0850    0.4320 hc        1 MOL      0.104971
    128 H54        -8.7090    2.0850    1.8800 hc        1 MOL      0.104971
    129 H55       -10.9360   -0.3920    0.0240 ha        1 MOL      0.132179
    130 H56        -9.4690    1.1410    3.8030 ha        1 MOL      0.132179
    131 H57       -12.6280   -1.7600    1.2440 ha        1 MOL      0.089592
    132 H58       -11.2160   -0.3000    4.9280 ha        1 MOL      0.089592
    133 H59       -12.6910   -1.8070    3.6880 ha        1 MOL      0.118355
    134 N12        -8.3340   -1.1610   -1.1440 n         1 MOL      0.041317
    135 C45        -7.9150   -2.1840   -0.2120 c3        1 MOL     -0.154578
    136 C46        -6.4040   -2.4560   -0.2610 c         1 MOL      0.583389
    137 O20        -5.6340   -1.5150   -0.3170 o         1 MOL     -0.617613
    138 C47        -8.7950   -3.4320   -0.4990 c3        1 MOL     -0.260614
    139 C48        -8.9980   -3.3450   -1.9940 c3        1 MOL      0.121205
    140 C49        -9.0500   -1.8510   -2.1910 c3        1 MOL     -0.056521
    141 H60        -8.1090   -1.7780    0.7840 h1        1 MOL      0.063295
    142 H61        -8.2900   -4.3420   -0.1860 hc        1 MOL      0.072954
    143 H62        -9.7540   -3.2240   -0.0290 hc        1 MOL      0.072954
    144 H63        -8.1320   -3.7570   -2.5010 hc        1 MOL      0.005924
    145 H64        -9.9230   -3.8980   -2.2010 hc        1 MOL      0.005924
    146 H65        -8.5620   -1.6910   -3.1480 h1        1 MOL      0.036596
    147 H66       -10.0620   -1.4350   -2.2620 h1        1 MOL      0.036596
    148 N13        -5.8970   -3.7050   -0.1580 n         1 MOL     -0.104876
    149 C50        -4.4390   -3.9150   -0.1470 c3        1 MOL      0.099229
    150 C51        -3.9410   -4.9210    0.9560 c         1 MOL      0.391689
    151 O21        -2.9430   -5.6100    0.6420 o         1 MOL     -0.532637
    152 C52        -3.8990   -4.2350   -1.6060 c3        1 MOL     -0.265278
    153 C53        -4.2850   -5.5240   -2.3340 c3        1 MOL     -0.250804
    154 C54        -5.7200   -5.4800   -2.8580 c         1 MOL      0.694621
    155 O22        -6.5270   -6.3850   -2.5080 o         1 MOL     -0.709206
    156 O23        -5.9650   -4.6650   -3.8200 o         1 MOL     -0.709206
    157 H67        -6.4630   -4.5440   -0.1880 hn        1 MOL      0.173937
    158 H68        -3.9240   -3.0230    0.2060 h1        1 MOL      0.064170
    159 H69        -2.8140   -4.1950   -1.4770 hc        1 MOL      0.106054
    160 H70        -4.2080   -3.4220   -2.2570 hc        1 MOL      0.106054
    161 H71        -3.9370   -6.3640   -1.7250 hc        1 MOL      0.065884
    162 H72        -3.6730   -5.5060   -3.2380 hc        1 MOL      0.065884
    163 N14        -4.4770   -5.0910    2.1740 n         1 MOL     -0.385232
    164 C55        -5.3970   -4.1940    2.8780 c3        1 MOL      0.077673
    165 H73        -6.0140   -3.6640    2.1530 h1        1 MOL      0.014015
    166 H74        -6.0360   -4.7760    3.5420 h1        1 MOL      0.014015
    167 H75        -4.8250   -3.4730    3.4640 h1        1 MOL      0.014015
    168 H76        -4.0970   -5.9290    2.5830 hn        1 MOL      0.267009
    169 Ca1         6.5330    1.4720   -0.9670 Ca        1 MOL      1.711421
    170 O24         6.7730    4.1330   -1.1610 oh        1 MOL     -0.792456
    171 H77         6.5750    4.5300   -2.0150 ho        1 MOL      0.383848
    172 H78         7.4300    4.7090   -0.7850 ho        1 MOL      0.383848
    173 O25         6.2730    2.3850   -3.4390 oh        1 MOL     -0.792456
    174 H79         6.5530    2.1300   -4.3150 ho        1 MOL      0.383848
    175 H80         6.2080    3.3410   -3.4710 ho        1 MOL      0.383848
    176 O26         8.8660    1.9640   -2.0780 oh        1 MOL     -0.792456
    177 H81         9.5300    1.2820   -2.1150 ho        1 MOL      0.383848
    178 H82         9.1140    2.5720   -2.7640 ho        1 MOL      0.383848
    179 O27         4.5420    2.1840    0.6150 oh        1 MOL     -0.792456
    180 H83         3.7990    1.5690    0.6210 ho        1 MOL      0.383848
    181 H84         4.3830    2.7750    1.3450 ho        1 MOL      0.383848
@<TRIPOS>BOND
     1    1    2 1   
     2    1    4 1   
     3    1    5 1   
     4    1    6 1   
     5    2    3 2   
     6    2    7 1   
     7    7    8 1   
     8    7   15 1   
     9    8    9 1   
    10    8   11 1   
    11    8   16 1   
    12    9   10 2   
    13    9   19 1   
    14   11   12 1   
    15   11   17 1   
    16   11   18 1   
    17   12   13 1   
    18   12   14 1   
    19   19   20 1   
    20   19   24 1   
    21   20   21 1   
    22   20   23 1   
    23   20   25 1   
    24   21   22 2   
    25   21   29 1   
    26   23   26 1   
    27   23   27 1   
    28   23   28 1   
    29   29   30 1   
    30   29   37 1   
    31   30   31 1   
    32   30   33 1   
    33   30   38 1   
    34   31   32 2   
    35   31   41 1   
    36   33   34 1   
    37   33   39 1   
    38   33   40 1   
    39   34   35 1   
    40   34   36 1   
    41   41   42 1   
    42   41   45 1   
    43   42   43 1   
    44   42   46 1   
    45   42   47 1   
    46   43   44 2   
    47   43   48 1   
    48   48   49 1   
    49   48   56 1   
    50   49   50 1   
    51   49   52 1   
    52   49   57 1   
    53   50   51 2   
    54   50   62 1   
    55   52   53 1   
    56   52   58 1   
    57   52   59 1   
    58   53   54 1   
    59   53   55 2   
    60   54   60 1   
    61   54   61 1   
    62   62   63 1   
    63   62   66 1   
    64   63   64 1   
    65   63   67 1   
    66   63   68 1   
    67   64   65 2   
    68   64   69 1   
    69   69   70 1   
    70   69   76 1   
    71   70   71 1   
    72   70   73 1   
    73   70   77 1   
    74   71   72 2   
    75   71   83 1   
    76   73   74 1   
    77   73   75 1   
    78   73   78 1   
    79   74   80 1   
    80   74   81 1   
    81   74   82 1   
    82   75   79 1   
    83   83   84 1   
    84   83   91 1   
    85   84   85 1   
    86   84   87 1   
    87   84   92 1   
    88   85   86 2   
    89   85  102 1   
    90   87   88 1   
    91   87   89 1   
    92   87   93 1   
    93   88   90 1   
    94   88   94 1   
    95   88   95 1   
    96   89   96 1   
    97   89   97 1   
    98   89   98 1   
    99   90   99 1   
   100   90  100 1   
   101   90  101 1   
   102  102  103 1   
   103  102  110 1   
   104  103  104 1   
   105  103  106 1   
   106  103  111 1   
   107  104  105 2   
   108  104  114 1   
   109  106  107 1   
   110  106  112 1   
   111  106  113 1   
   112  107  108 1   
   113  107  109 1   
   114  114  115 1   
   115  114  125 1   
   116  115  116 1   
   117  115  118 1   
   118  115  126 1   
   119  116  117 2   
   120  116  134 1   
   121  118  119 1   
   122  118  127 1   
   123  118  128 1   
   124  119  120 ar  
   125  119  121 ar  
   126  120  122 ar  
   127  120  129 1   
   128  121  123 ar  
   129  121  130 1   
   130  122  124 ar  
   131  122  131 1   
   132  123  124 ar  
   133  123  132 1   
   134  124  133 1   
   135  134  135 1   
   136  134  140 1   
   137  135  136 1   
   138  135  138 1   
   139  135  141 1   
   140  136  137 2   
   141  136  148 1   
   142  138  139 1   
   143  138  142 1   
   144  138  143 1   
   145  139  140 1   
   146  139  144 1   
   147  139  145 1   
   148  140  146 1   
   149  140  147 1   
   150  148  149 1   
   151  148  157 1   
   152  149  150 1   
   153  149  152 1   
   154  149  158 1   
   155  150  151 2   
   156  150  163 1   
   157  152  153 1   
   158  152  159 1   
   159  152  160 1   
   160  153  154 1   
   161  153  161 1   
   162  153  162 1   
   163  154  155 1   
   164  154  156 1   
   165  163  164 1   
   166  163  168 1   
   167  164  165 1   
   168  164  166 1   
   169  164  167 1   
   170  170  171 1   
   171  170  172 1   
   172  173  174 1   
   173  173  175 1   
   174  176  177 1   
   175  176  178 1   
   176  179  180 1   
   177  179  181 1   
@<TRIPOS>SUBSTRUCTURE
     1 MOL         1 TEMP              0 ****  ****    0 ROOT
