@<TRIPOS>MOLECULE
MOL
  185   180     1     0     0
SMALL
resp


@<TRIPOS>ATOM
      1 C1          4.8620   -1.3450    5.5350 c3        1 MOL     -0.484814
      2 C2          3.9560   -1.2170    4.3240 c         1 MOL      0.723387
      3 O1          2.7430   -1.5100    4.3730 o         1 MOL     -0.638233
      4 H1          4.5190   -2.1700    6.1590 hc        1 MOL      0.128018
      5 H2          5.8830   -1.5400    5.2070 hc        1 MOL      0.128018
      6 H3          4.8350   -0.4190    6.1100 hc        1 MOL      0.128018
      7 N1          4.5530   -0.9350    3.1970 n         1 MOL     -0.502715
      8 C3          3.8000   -0.7740    1.9200 c3        1 MOL      0.250328
      9 C4          3.4340   -2.0670    1.2020 c         1 MOL      0.173489
     10 O2          2.4630   -2.2080    0.4860 o         1 MOL     -0.381911
     11 C5          4.6110    0.1020    0.9470 c3        1 MOL     -0.457841
     12 C6          6.0680   -0.1430    0.9440 c         1 MOL      0.834393
     13 O3          6.5390   -1.1630    0.4700 o         1 MOL     -0.679408
     14 O4          6.9290    0.6540    1.5060 o         1 MOL     -0.679408
     15 H4          5.5560   -0.9440    3.2050 hn        1 MOL      0.273385
     16 H5          2.8050   -0.3890    2.1380 h1        1 MOL      0.060936
     17 H6          4.3400    1.1200    1.2010 hc        1 MOL      0.099255
     18 H7          4.1710    0.0340   -0.0520 hc        1 MOL      0.099255
     19 N2          4.2050   -3.1440    1.4750 n         1 MOL     -0.228924
     20 C7          3.9210   -4.4690    0.8350 c3        1 MOL     -0.133197
     21 C8          4.1330   -4.5510   -0.6720 c         1 MOL      0.586746
     22 O5          4.0150   -5.6170   -1.2500 o         1 MOL     -0.547676
     23 C9          4.7040   -5.5260    1.5940 c3        1 MOL      0.149605
     24 C10         4.3270   -5.6540    3.1260 c3        1 MOL     -0.244383
     25 C11         5.4560   -6.2910    3.8490 c3        1 MOL      0.174730
     26 C12         4.9730   -6.7590    5.2210 c3        1 MOL      0.101860
     27 N3          5.8140   -7.9040    5.7150 n4        1 MOL     -0.373263
     28 H8          4.9640   -3.0640    2.1260 hn        1 MOL      0.281050
     29 H9          2.8550   -4.6920    0.9120 h1        1 MOL      0.121254
     30 H10         5.7660   -5.2990    1.4820 hc        1 MOL      0.003272
     31 H11         4.5980   -6.5130    1.1310 hc        1 MOL      0.003272
     32 H12         3.4890   -6.3480    3.0730 hc        1 MOL      0.068921
     33 H13         4.0660   -4.6810    3.5450 hc        1 MOL      0.068921
     34 H14         6.3060   -5.6310    4.0110 hc        1 MOL     -0.024588
     35 H15         5.8160   -7.1180    3.2310 hc        1 MOL     -0.024588
     36 H16         3.9090   -6.9720    5.1770 hx        1 MOL      0.043451
     37 H17         5.0980   -5.8240    5.7760 hx        1 MOL      0.043451
     38 H18         5.8720   -8.7550    5.1570 hn        1 MOL      0.296524
     39 H19         6.7080   -7.4650    5.8840 hn        1 MOL      0.296524
     40 H20         5.4350   -8.2200    6.5960 hn        1 MOL      0.296524
     41 N4          4.2310   -3.4300   -1.3660 n         1 MOL     -0.286225
     42 C13         4.2940   -3.1730   -2.8270 c3        1 MOL     -0.062937
     43 C14         4.5790   -1.6990   -3.1020 c         1 MOL      0.806840
     44 O6          4.0180   -0.7450   -2.5080 o         1 MOL     -0.640004
     45 C15         2.9870   -3.5490   -3.5960 c3        1 MOL     -0.320950
     46 C16         1.7320   -3.0820   -2.9170 c         1 MOL      0.911963
     47 O7          1.1900   -2.0160   -3.2370 o         1 MOL     -0.788014
     48 O8          1.1620   -3.7290   -2.0190 o         1 MOL     -0.788014
     49 H21         4.0130   -2.6160   -0.8000 hn        1 MOL      0.084658
     50 H22         5.1470   -3.7270   -3.2260 h1        1 MOL      0.082340
     51 H23         2.9790   -4.6350   -3.5310 hc        1 MOL      0.091743
     52 H24         2.9940   -3.2890   -4.6570 hc        1 MOL      0.091743
     53 N5          5.4120   -1.4610   -4.1230 n         1 MOL     -0.594743
     54 C17         6.0550   -0.1340   -4.4140 c3        1 MOL      0.144611
     55 C18         7.1080    0.2470   -3.5490 c         1 MOL      0.526980
     56 O9          8.0160   -0.5320   -3.3100 o         1 MOL     -0.539063
     57 H25         5.6500   -2.1660   -4.8050 hn        1 MOL      0.332468
     58 H26         5.2840    0.6280   -4.5050 h1        1 MOL      0.036437
     59 H27         6.4780   -0.1020   -5.4140 h1        1 MOL      0.036437
     60 N6          7.1620    1.4610   -2.9550 n         1 MOL     -0.457301
     61 C19         6.0330    2.4150   -2.8520 c3        1 MOL      0.055709
     62 C20         6.1730    3.2850   -1.6100 c         1 MOL      0.600151
     63 O10         7.3190    3.5450   -1.1940 o         1 MOL     -0.540847
     64 C21         6.0720    3.2700   -4.1430 c3        1 MOL     -0.458057
     65 C22         5.0960    4.4480   -4.0410 c         1 MOL      0.681980
     66 N7          5.6450    5.6330   -3.7570 n         1 MOL     -0.779525
     67 O11         3.8540    4.2690   -4.1600 o         1 MOL     -0.564631
     68 H28         7.9750    1.6090   -2.3680 hn        1 MOL      0.325582
     69 H29         5.1160    1.8230   -2.8330 h1        1 MOL      0.159828
     70 H30         5.7710    2.6250   -4.9790 hc        1 MOL      0.127837
     71 H31         7.0680    3.6450   -4.3680 hc        1 MOL      0.127837
     72 H32         6.6520    5.6390   -3.8330 hn        1 MOL      0.377994
     73 H33         5.0750    6.4600   -3.8270 hn        1 MOL      0.377994
     74 N8          5.1800    3.6900   -0.8060 n         1 MOL     -0.510003
     75 C23         3.7400    3.4080   -1.0260 c3        1 MOL      0.051623
     76 C24         2.7990    4.0010    0.0740 c         1 MOL      0.629030
     77 O12         3.2420    4.5050    1.1150 o         1 MOL     -0.531708
     78 H34         5.4920    4.0550    0.0810 hn        1 MOL      0.308487
     79 H35         3.5890    2.3350   -1.1030 h1        1 MOL      0.024203
     80 H36         3.4860    3.9100   -1.9640 h1        1 MOL      0.024203
     81 N9          1.5000    3.9750   -0.1790 n         1 MOL     -0.526841
     82 C25         0.4190    4.5260    0.6750 c3        1 MOL      0.091025
     83 C26        -0.8660    3.6130    0.5300 c         1 MOL      0.758432
     84 O13        -1.2030    3.1470   -0.5630 o         1 MOL     -0.571135
     85 C27         0.3160    6.0970    0.5470 c3        1 MOL     -0.252462
     86 C28        -0.2920    6.8490    1.6420 ca        1 MOL      0.047465
     87 C29        -1.6880    7.0270    1.6510 ca        1 MOL     -0.107872
     88 C30         0.4820    7.2500    2.7400 ca        1 MOL     -0.107872
     89 C31        -2.3320    7.5030    2.8240 ca        1 MOL     -0.276737
     90 C32        -0.1240    7.7660    3.8650 ca        1 MOL     -0.276737
     91 C33        -1.5380    7.9060    3.9450 ca        1 MOL      0.308531
     92 O14        -2.1890    8.4350    5.0410 oh        1 MOL     -0.465173
     93 H37         1.1640    3.6120   -1.0600 hn        1 MOL      0.266747
     94 H38         0.7210    4.3790    1.7150 h1        1 MOL      0.041516
     95 H39        -0.2360    6.3310   -0.3680 hc        1 MOL      0.112597
     96 H40         1.3320    6.4890    0.4480 hc        1 MOL      0.112597
     97 H41        -2.2660    6.7060    0.8010 ha        1 MOL      0.128700
     98 H42         1.5520    7.3470    2.6700 ha        1 MOL      0.128700
     99 H43        -3.3940    7.6680    2.9200 ha        1 MOL      0.152082
    100 H44         0.5030    8.0870    4.6740 ha        1 MOL      0.152082
    101 H45        -1.5780    8.4260    5.7830 ho        1 MOL      0.351453
    102 N10        -1.5550    3.3470    1.6550 n         1 MOL     -0.644189
    103 C34        -2.8270    2.6690    1.7040 c3        1 MOL     -0.023245
    104 C35        -3.9090    3.1880    0.7540 c         1 MOL      0.618705
    105 O15        -4.0230    4.3340    0.5000 o         1 MOL     -0.506839
    106 C36        -3.2640    2.5000    3.1330 c3        1 MOL      0.293902
    107 C37        -2.4570    1.4070    3.8210 c3        1 MOL      0.016543
    108 C38        -3.3860    3.8320    3.9180 c3        1 MOL     -0.329954
    109 C39        -3.2680    0.5970    4.8420 c3        1 MOL     -0.187876
    110 H46        -1.2190    3.7100    2.5360 hn        1 MOL      0.298143
    111 H47        -2.6710    1.6580    1.3370 h1        1 MOL      0.041041
    112 H48        -4.2740    2.1090    3.1100 hc        1 MOL     -0.021676
    113 H49        -1.6910    1.9720    4.3510 hc        1 MOL      0.001529
    114 H50        -2.0290    0.6860    3.1250 hc        1 MOL      0.001529
    115 H51        -3.6530    3.5160    4.9260 hc        1 MOL      0.087008
    116 H52        -2.3540    4.1810    3.9120 hc        1 MOL      0.087008
    117 H53        -4.0310    4.5490    3.4220 hc        1 MOL      0.087008
    118 H54        -3.8690    1.2470    5.4810 hc        1 MOL      0.048612
    119 H55        -4.0050    0.0620    4.2480 hc        1 MOL      0.048612
    120 H56        -2.5520    0.0590    5.4600 hc        1 MOL      0.048612
    121 N11        -4.7730    2.3270    0.2530 n         1 MOL     -0.451481
    122 C40        -5.6320    2.4990   -0.8840 c3        1 MOL      0.085295
    123 C41        -5.8440    1.1930   -1.6390 c         1 MOL      0.423478
    124 O16        -5.5870    0.1600   -1.0550 o         1 MOL     -0.362051
    125 C42        -7.0690    2.9780   -0.4710 c3        1 MOL      0.090474
    126 O17        -7.7100    2.2340    0.5060 oh        1 MOL     -0.595071
    127 H57        -4.7220    1.3800    0.5970 hn        1 MOL      0.240534
    128 H58        -5.2350    3.1870   -1.6250 h1        1 MOL      0.054157
    129 H59        -7.7400    3.1840   -1.2970 h1        1 MOL      0.024605
    130 H60        -6.7990    3.9820   -0.1480 h1        1 MOL      0.024605
    131 H61        -8.3770    2.7730    0.9340 ho        1 MOL      0.420128
    132 N12        -6.1310    1.3550   -2.9410 n         1 MOL     -0.376278
    133 C43        -6.3240    0.2430   -3.8840 c3        1 MOL     -0.010626
    134 C44        -7.2570   -0.8910   -3.3510 c         1 MOL      0.378969
    135 O18        -7.1020   -2.0610   -3.7180 o         1 MOL     -0.420420
    136 C45        -4.9440   -0.1170   -4.4150 c3        1 MOL     -0.140966
    137 H62        -6.4860    2.2430   -3.2620 hn        1 MOL      0.265618
    138 H63        -6.8880    0.7650   -4.6550 h1        1 MOL      0.094703
    139 H64        -4.3320   -0.5060   -3.6030 hc        1 MOL      0.061415
    140 H65        -4.8990   -0.8590   -5.2070 hc        1 MOL      0.061415
    141 H66        -4.4470    0.7720   -4.7980 hc        1 MOL      0.061415
    142 N13        -8.0650   -0.5220   -2.3860 n         1 MOL     -0.451260
    143 C46        -8.9540   -1.4760   -1.5890 c3        1 MOL      0.412376
    144 C47        -8.3870   -2.8020   -1.1130 c         1 MOL      0.096917
    145 O19        -8.9830   -3.8330   -1.2640 o         1 MOL     -0.421835
    146 C48       -10.1190   -1.7390   -2.5390 c3        1 MOL     -0.354767
    147 H67        -8.2640    0.4580   -2.2280 hn        1 MOL      0.265444
    148 H68        -9.2690   -0.9090   -0.7130 h1        1 MOL     -0.018015
    149 H69       -10.9370   -2.1900   -1.9860 hc        1 MOL      0.095715
    150 H70       -10.5390   -0.8230   -2.9510 hc        1 MOL      0.095715
    151 H71        -9.8000   -2.3980   -3.3590 hc        1 MOL      0.095715
    152 N14        -7.1300   -2.8170   -0.6900 n         1 MOL     -0.020498
    153 C49        -6.4110   -4.0610   -0.2550 c3        1 MOL      0.034545
    154 C50        -7.0510   -4.7070    0.9620 c         1 MOL      0.341465
    155 O20        -7.1610   -5.9250    1.0050 o         1 MOL     -0.492358
    156 C51        -4.9550   -3.7680   -0.0110 c3        1 MOL      0.015070
    157 C52        -4.2050   -3.2270   -1.2340 c3        1 MOL      0.031695
    158 C53        -2.7360   -2.9180   -0.9360 c         1 MOL      0.757539
    159 O21        -2.4710   -2.1180   -0.0170 o         1 MOL     -0.755473
    160 O22        -1.7520   -3.2650   -1.6590 o         1 MOL     -0.755473
    161 H72        -6.7100   -1.8970   -0.7480 hn        1 MOL      0.105733
    162 H73        -6.4580   -4.8210   -1.0340 h1        1 MOL      0.111065
    163 H74        -4.4160   -4.6730    0.2870 hc        1 MOL     -0.019796
    164 H75        -4.8650   -2.9550    0.7140 hc        1 MOL     -0.019796
    165 H76        -4.6310   -2.2330   -1.4240 hc        1 MOL     -0.031521
    166 H77        -4.3140   -3.7780   -2.1730 hc        1 MOL     -0.031521
    167 N15        -7.4920   -3.9470    1.9810 n         1 MOL     -0.141907
    168 C54        -7.8870   -4.4580    3.3220 c3        1 MOL     -0.403893
    169 H78        -8.7580   -5.1060    3.2210 h1        1 MOL      0.149311
    170 H79        -7.0610   -5.0260    3.7510 h1        1 MOL      0.149311
    171 H80        -8.1300   -3.6200    3.9740 h1        1 MOL      0.149311
    172 H81        -7.4050   -2.9460    1.8700 hn        1 MOL      0.184360
    173 Ca1         0.0840   -1.7430   -0.5990 Ca        1 MOL      1.751014
    174 O23         0.4180   -0.0300    1.3570 oh        1 MOL     -0.835497
    175 H82         0.8650    0.7690    1.6380 ho        1 MOL      0.408252
    176 H83         0.0860   -0.4170    2.1770 ho        1 MOL      0.408252
    177 O24        -0.3530   -3.8650    1.2430 oh        1 MOL     -0.835497
    178 H84        -0.5110   -4.8050    1.2390 ho        1 MOL      0.408252
    179 H85         0.0440   -3.6910    2.1000 ho        1 MOL      0.408252
    180 O25         1.8750    0.2890   -1.3220 oh        1 MOL     -0.835497
    181 O26        -1.2120    0.4350   -1.3140 oh        1 MOL     -0.835497
    182 H86         2.7280    0.1150   -1.7250 ho        1 MOL      0.408252
    183 H87        -1.4040    0.5430   -2.2470 ho        1 MOL      0.408252
    184 H88         1.6120    1.1270   -1.6890 ho        1 MOL      0.408252
    185 H89        -1.4340    1.2770   -0.9310 ho        1 MOL      0.408252
@<TRIPOS>BOND
     1    1    2 1   
     2    1    4 1   
     3    1    5 1   
     4    1    6 1   
     5    2    3 2   
     6    2    7 1   
     7    7    8 1   
     8    7   15 1   
     9    8    9 1   
    10    8   11 1   
    11    8   16 1   
    12    9   10 2   
    13    9   19 1   
    14   11   12 1   
    15   11   17 1   
    16   11   18 1   
    17   12   13 1   
    18   12   14 1   
    19   19   20 1   
    20   19   28 1   
    21   20   21 1   
    22   20   23 1   
    23   20   29 1   
    24   21   22 2   
    25   21   41 1   
    26   23   24 1   
    27   23   30 1   
    28   23   31 1   
    29   24   25 1   
    30   24   32 1   
    31   24   33 1   
    32   25   26 1   
    33   25   34 1   
    34   25   35 1   
    35   26   27 1   
    36   26   36 1   
    37   26   37 1   
    38   27   38 1   
    39   27   39 1   
    40   27   40 1   
    41   41   42 1   
    42   41   49 1   
    43   42   43 1   
    44   42   45 1   
    45   42   50 1   
    46   43   44 2   
    47   43   53 1   
    48   45   46 1   
    49   45   51 1   
    50   45   52 1   
    51   46   47 1   
    52   46   48 1   
    53   53   54 1   
    54   53   57 1   
    55   54   55 1   
    56   54   58 1   
    57   54   59 1   
    58   55   56 2   
    59   55   60 1   
    60   60   61 1   
    61   60   68 1   
    62   61   62 1   
    63   61   64 1   
    64   61   69 1   
    65   62   63 2   
    66   62   74 1   
    67   64   65 1   
    68   64   70 1   
    69   64   71 1   
    70   65   66 1   
    71   65   67 2   
    72   66   72 1   
    73   66   73 1   
    74   74   75 1   
    75   74   78 1   
    76   75   76 1   
    77   75   79 1   
    78   75   80 1   
    79   76   77 2   
    80   76   81 1   
    81   81   82 1   
    82   81   93 1   
    83   82   83 1   
    84   82   85 1   
    85   82   94 1   
    86   83   84 2   
    87   83  102 1   
    88   85   86 1   
    89   85   95 1   
    90   85   96 1   
    91   86   87 ar  
    92   86   88 ar  
    93   87   89 ar  
    94   87   97 1   
    95   88   90 ar  
    96   88   98 1   
    97   89   91 ar  
    98   89   99 1   
    99   90   91 ar  
   100   90  100 1   
   101   91   92 1   
   102   92  101 1   
   103  102  103 1   
   104  102  110 1   
   105  103  104 1   
   106  103  106 1   
   107  103  111 1   
   108  104  105 2   
   109  104  121 1   
   110  106  107 1   
   111  106  108 1   
   112  106  112 1   
   113  107  109 1   
   114  107  113 1   
   115  107  114 1   
   116  108  115 1   
   117  108  116 1   
   118  108  117 1   
   119  109  118 1   
   120  109  119 1   
   121  109  120 1   
   122  121  122 1   
   123  121  127 1   
   124  122  123 1   
   125  122  125 1   
   126  122  128 1   
   127  123  124 2   
   128  123  132 1   
   129  125  126 1   
   130  125  129 1   
   131  125  130 1   
   132  126  131 1   
   133  132  133 1   
   134  132  137 1   
   135  133  134 1   
   136  133  136 1   
   137  133  138 1   
   138  134  135 2   
   139  134  142 1   
   140  136  139 1   
   141  136  140 1   
   142  136  141 1   
   143  142  143 1   
   144  142  147 1   
   145  143  144 1   
   146  143  146 1   
   147  143  148 1   
   148  144  145 2   
   149  144  152 1   
   150  146  149 1   
   151  146  150 1   
   152  146  151 1   
   153  152  153 1   
   154  152  161 1   
   155  153  154 1   
   156  153  156 1   
   157  153  162 1   
   158  154  155 2   
   159  154  167 1   
   160  156  157 1   
   161  156  163 1   
   162  156  164 1   
   163  157  158 1   
   164  157  165 1   
   165  157  166 1   
   166  158  159 1   
   167  158  160 1   
   168  167  168 1   
   169  167  172 1   
   170  168  169 1   
   171  168  170 1   
   172  168  171 1   
   173  174  175 1   
   174  174  176 1   
   175  177  178 1   
   176  177  179 1   
   177  180  182 1   
   178  180  184 1   
   179  181  183 1   
   180  181  185 1   
@<TRIPOS>SUBSTRUCTURE
     1 MOL         1 TEMP              0 ****  ****    0 ROOT
