@<TRIPOS>MOLECULE
MOL
  198   191     1     0     0
SMALL
resp


@<TRIPOS>ATOM
      1 C1          3.2010    7.4740   -6.4930 c3        1 MOL     -0.442126
      2 C2          3.3410    7.0100   -5.0660 c         1 MOL      0.797951
      3 O1          4.2760    6.2680   -4.7350 o         1 MOL     -0.661925
      4 H1          2.1680    7.7650   -6.6810 hc        1 MOL      0.107023
      5 H2          3.8550    8.3280   -6.6640 hc        1 MOL      0.107023
      6 H3          3.4790    6.6630   -7.1670 hc        1 MOL      0.107023
      7 N1          2.4080    7.3750   -4.2470 n         1 MOL     -0.582254
      8 C3          2.4390    6.9480   -2.8670 c3        1 MOL      0.124371
      9 C4          1.7580    5.6170   -2.6270 c         1 MOL      0.552019
     10 O2          0.7950    5.2690   -3.3660 o         1 MOL     -0.558543
     11 C5          1.9490    7.9590   -1.8290 c3        1 MOL     -0.079725
     12 C6          0.5850    8.6030   -2.3050 c         1 MOL      0.607756
     13 O3         -0.3620    8.5230   -1.4720 o         1 MOL     -0.605550
     14 O4          0.3950    9.1240   -3.4480 o         1 MOL     -0.605550
     15 H4          1.5840    7.8720   -4.5620 hn        1 MOL      0.299588
     16 H5          3.4690    6.8450   -2.5320 h1        1 MOL      0.031074
     17 H6          2.6190    8.8050   -1.6820 hc        1 MOL      0.020010
     18 H7          1.8320    7.4840   -0.8610 hc        1 MOL      0.020010
     19 N2          2.1210    4.8370   -1.6270 n         1 MOL     -0.381003
     20 C7          1.4830    3.5440   -1.2320 c3        1 MOL     -0.051731
     21 C8          1.6110    3.2910    0.2650 c         1 MOL      0.711916
     22 O5          2.4270    3.9990    0.8740 o         1 MOL     -0.529843
     23 C9          1.7760    2.4100   -2.2600 c3        1 MOL      0.020653
     24 C10         3.2250    1.9070   -2.4040 c3        1 MOL     -0.300310
     25 C11         3.7590    0.9550   -1.2880 c3        1 MOL     -0.188764
     26 C12         5.2510    0.8350   -1.5350 c3        1 MOL      0.103172
     27 N3          5.8430    0.1200   -0.4160 n4        1 MOL     -0.107943
     28 H8          2.8860    5.1520   -1.0570 hn        1 MOL      0.240795
     29 H9          0.4280    3.8240   -1.2580 h1        1 MOL      0.110407
     30 H10         1.3950    2.6940   -3.2440 hc        1 MOL      0.016499
     31 H11         1.1090    1.5820   -2.0210 hc        1 MOL      0.016499
     32 H12         3.8130    2.8230   -2.3080 hc        1 MOL      0.125298
     33 H13         3.2940    1.4390   -3.3810 hc        1 MOL      0.125298
     34 H14         3.2540   -0.0050   -1.2610 hc        1 MOL      0.122486
     35 H15         3.5570    1.5490   -0.3960 hc        1 MOL      0.122486
     36 H16         5.6910    1.8290   -1.6380 hx        1 MOL      0.023363
     37 H17         5.2970    0.3330   -2.5000 hx        1 MOL      0.023363
     38 H18         6.8490    0.1190   -0.4550 hn        1 MOL      0.254149
     39 H19         5.5610    0.5640    0.4450 hn        1 MOL      0.254149
     40 H20         5.6160   -0.8610   -0.5150 hn        1 MOL      0.254149
     41 N4          0.9340    2.2370    0.7800 n         1 MOL     -0.651036
     42 C13         1.3380    1.6340    2.0070 c3        1 MOL      0.035452
     43 C14         1.2370    0.0900    2.0610 c         1 MOL      0.418247
     44 O6          0.3550   -0.4670    1.4980 o         1 MOL     -0.501045
     45 C15         0.5470    2.0960    3.2940 c3        1 MOL     -0.249016
     46 C16        -0.8880    2.4590    2.9100 c         1 MOL      0.751379
     47 O7         -1.8100    1.6980    3.1220 o         1 MOL     -0.699079
     48 O8         -1.2000    3.6100    2.5140 o         1 MOL     -0.699079
     49 H21         0.4300    1.6530    0.1270 hn        1 MOL      0.366643
     50 H22         2.3750    1.9010    2.1970 h1        1 MOL      0.109628
     51 H23         0.9820    2.9720    3.7710 hc        1 MOL      0.090467
     52 H24         0.5480    1.3380    4.0810 hc        1 MOL      0.090467
     53 N5          1.9020   -0.5880    2.9830 n         1 MOL     -0.236139
     54 C17         2.9860   -0.1400    3.8480 c3        1 MOL     -0.362905
     55 C18         4.3570    0.1550    3.1860 c         1 MOL      0.864497
     56 O9          4.4920    0.5440    2.0070 o         1 MOL     -0.659654
     57 H25         1.7560   -1.5860    2.9250 hn        1 MOL      0.228327
     58 H26         3.1160   -0.9160    4.6010 h1        1 MOL      0.147306
     59 H27         2.6230    0.7580    4.3520 h1        1 MOL      0.147306
     60 N6          5.4080   -0.3060    3.8890 n         1 MOL     -0.568730
     61 C19         6.7290    0.0390    3.4550 c3        1 MOL     -0.196257
     62 C20         7.4270   -0.9800    2.5410 c         1 MOL      0.550675
     63 O10         8.1400   -0.6340    1.5720 o         1 MOL     -0.550540
     64 C21         7.5800    0.3300    4.7090 c3        1 MOL      0.035529
     65 C22         6.7760    0.8240    5.9420 c         1 MOL      0.695984
     66 O11         6.4030    2.0100    6.0270 o         1 MOL     -0.680916
     67 O12         6.5760    0.0080    6.8630 o         1 MOL     -0.680916
     68 H28         5.2370   -0.9770    4.6200 hn        1 MOL      0.283029
     69 H29         6.6590    0.9850    2.9200 h1        1 MOL      0.164137
     70 H30         8.3700    1.0580    4.5330 hc        1 MOL     -0.017056
     71 H31         8.1000   -0.5950    4.9600 hc        1 MOL     -0.017056
     72 N7          7.0500   -2.2510    2.7490 n         1 MOL     -0.213761
     73 C23         7.5270   -3.4310    2.0550 c3        1 MOL     -0.407365
     74 C24         7.0770   -3.6170    0.5850 c         1 MOL      0.511156
     75 O13         7.2800   -2.7700   -0.2870 o         1 MOL     -0.471072
     76 H32         6.2880   -2.3850    3.3980 hn        1 MOL      0.273404
     77 H33         7.3430   -4.3280    2.6460 h1        1 MOL      0.169231
     78 H34         8.6050   -3.3020    1.9030 h1        1 MOL      0.169231
     79 N8          6.2030   -4.6260    0.4420 n         1 MOL     -0.299840
     80 C25         5.2910   -4.7610   -0.6900 c3        1 MOL     -0.091165
     81 C26         4.4500   -3.6110   -1.1820 c         1 MOL      0.627415
     82 O14         4.4740   -2.5630   -0.5400 o         1 MOL     -0.578690
     83 C27         5.9950   -5.5660   -1.8370 c3        1 MOL      0.304726
     84 C28         7.0610   -4.9270   -2.6240 c3        1 MOL     -0.206628
     85 O15         6.6970   -6.8180   -1.4630 oh        1 MOL     -0.625808
     86 H35         6.1760   -5.3220    1.1760 hn        1 MOL      0.282231
     87 H36         4.4370   -5.3790   -0.4210 h1        1 MOL      0.034457
     88 H37         5.1640   -5.8900   -2.4700 h1        1 MOL     -0.007338
     89 H38         6.2430   -7.5590   -1.8610 ho        1 MOL      0.393129
     90 H39         6.7640   -3.9220   -2.9140 hc        1 MOL      0.065810
     91 H40         8.0270   -4.8850   -2.1240 hc        1 MOL      0.065810
     92 H41         7.1710   -5.5210   -3.5350 hc        1 MOL      0.065810
     93 N9          3.6050   -3.7790   -2.2060 n         1 MOL     -0.316272
     94 C29         2.6900   -2.8060   -2.8370 c3        1 MOL     -0.047513
     95 C30         1.3300   -2.6970   -2.0970 c         1 MOL      0.501834
     96 O16         0.7770   -1.6160   -1.8960 o         1 MOL     -0.486653
     97 C31         2.3780   -3.1600   -4.3080 c3        1 MOL     -0.023756
     98 C32         3.6070   -3.4360   -5.1940 c3        1 MOL     -0.073815
     99 C33         1.4900   -2.1020   -5.0410 c3        1 MOL     -0.310795
    100 C34         4.5260   -2.1680   -5.3340 c3        1 MOL     -0.430350
    101 H42         3.7400   -4.6000   -2.7780 hn        1 MOL      0.220273
    102 H43         3.0680   -1.7910   -2.8120 h1        1 MOL      0.134061
    103 H44         1.8000   -4.0830   -4.3210 hc        1 MOL      0.039130
    104 H45         3.3290   -3.7700   -6.1930 hc        1 MOL      0.062790
    105 H46         4.1350   -4.3300   -4.8530 hc        1 MOL      0.062790
    106 H47         0.4480   -2.1970   -4.7550 hc        1 MOL      0.114860
    107 H48         1.8760   -1.1080   -4.8280 hc        1 MOL      0.114860
    108 H49         1.5030   -2.1350   -6.1380 hc        1 MOL      0.114860
    109 H50         5.0240   -1.8140   -4.4300 hc        1 MOL      0.123524
    110 H51         5.3300   -2.4370   -6.0050 hc        1 MOL      0.123524
    111 H52         4.0050   -1.3660   -5.8600 hc        1 MOL      0.123524
    112 N10         0.8600   -3.8390   -1.5180 n         1 MOL     -0.357219
    113 C35        -0.2210   -3.9640   -0.4550 c3        1 MOL     -0.010061
    114 C36        -1.3050   -5.0230   -0.8320 c         1 MOL      0.544709
    115 O17        -1.0460   -6.0350   -1.5370 o         1 MOL     -0.536919
    116 C37         0.4690   -4.3120    0.8750 c3        1 MOL      0.370879
    117 C38         1.3100   -5.5730    0.7530 c3        1 MOL     -0.495446
    118 O18         1.3720   -3.2440    1.1720 oh        1 MOL     -0.541209
    119 H53         1.3800   -4.6560   -1.8050 hn        1 MOL      0.202002
    120 H54        -0.6840   -2.9970   -0.2810 h1        1 MOL      0.067464
    121 H55        -0.2770   -4.4050    1.6680 h1        1 MOL     -0.006346
    122 H56         0.8610   -2.4240    1.1700 ho        1 MOL      0.337720
    123 H57         0.8660   -6.3730    0.1630 hc        1 MOL      0.133002
    124 H58         2.2850   -5.3600    0.2980 hc        1 MOL      0.133002
    125 H59         1.3850   -5.8920    1.7970 hc        1 MOL      0.133002
    126 N11        -2.5410   -4.8070   -0.4150 n         1 MOL     -0.477407
    127 C39        -3.7050   -5.6620   -0.7070 c3        1 MOL      0.010228
    128 C40        -4.9720   -4.9220   -1.0920 c         1 MOL      0.674806
    129 O19        -5.3210   -5.0980   -2.2590 o         1 MOL     -0.592663
    130 C41        -3.9470   -6.6350    0.4510 c3        1 MOL      0.179829
    131 C42        -5.1460   -7.5300    0.1980 c3        1 MOL     -0.205786
    132 O20        -4.2060   -5.9830    1.6730 oh        1 MOL     -0.574870
    133 H60        -2.5900   -4.1200    0.3150 hn        1 MOL      0.245246
    134 H61        -3.4710   -6.2100   -1.6140 h1        1 MOL      0.124108
    135 H62        -3.1070   -7.3070    0.6360 h1        1 MOL      0.050964
    136 H63        -3.3890   -6.1310    2.1720 ho        1 MOL      0.393797
    137 H64        -6.1200   -7.0430    0.2250 hc        1 MOL      0.060026
    138 H65        -5.0620   -7.9400   -0.8070 hc        1 MOL      0.060026
    139 H66        -5.2430   -8.3230    0.9400 hc        1 MOL      0.060026
    140 N12        -5.5580   -4.0920   -0.3150 n         1 MOL     -0.563011
    141 C43        -6.5770   -3.0930   -0.6690 c3        1 MOL      0.349538
    142 C44        -6.2240   -1.7730   -0.0360 c         1 MOL      0.264395
    143 O21        -5.7050   -1.7420    1.0790 o         1 MOL     -0.467721
    144 C45        -7.9740   -3.6330   -0.3870 c3        1 MOL     -0.220351
    145 C46        -9.1600   -2.8050   -1.0160 c3        1 MOL      0.011102
    146 C47       -10.5050   -3.3910   -0.6110 c3        1 MOL     -0.102525
    147 C48       -11.5480   -2.4620   -1.1110 c3        1 MOL      0.098873
    148 N13       -12.9040   -2.8700   -0.6760 n4        1 MOL     -0.195913
    149 H67        -5.2470   -4.1380    0.6470 hn        1 MOL      0.288799
    150 H68        -6.6480   -3.0100   -1.7530 h1        1 MOL      0.005717
    151 H69        -8.0480   -3.8100    0.6800 hc        1 MOL      0.091724
    152 H70        -8.0200   -4.5840   -0.9140 hc        1 MOL      0.091724
    153 H71        -9.1430   -2.8310   -2.1020 hc        1 MOL      0.026305
    154 H72        -8.9800   -1.7780   -0.7130 hc        1 MOL      0.026305
    155 H73       -10.4820   -3.5360    0.4680 hc        1 MOL      0.043504
    156 H74       -10.6540   -4.3760   -1.0490 hc        1 MOL      0.043504
    157 H75       -11.4510   -2.3130   -2.1830 hx        1 MOL      0.060419
    158 H76       -11.3390   -1.4600   -0.7380 hx        1 MOL      0.060419
    159 H77       -12.8640   -2.8360    0.3340 hn        1 MOL      0.205102
    160 H78       -13.6130   -2.3190   -1.1250 hn        1 MOL      0.205102
    161 H79       -13.0580   -3.8550   -0.8390 hn        1 MOL      0.205102
    162 N14        -6.5570   -0.6730   -0.7630 n         1 MOL     -0.130040
    163 C49        -6.1330    0.6900   -0.3570 c3        1 MOL     -0.184096
    164 C50        -4.5340    0.7780   -0.1330 c         1 MOL      0.707798
    165 O22        -4.1620    1.6210    0.7130 o         1 MOL     -0.708866
    166 C51        -6.6750    1.7210   -1.3220 c3        1 MOL     -0.008460
    167 C52        -6.2970    3.1660   -0.9250 c3        1 MOL      0.055651
    168 C53        -6.6920    3.5190    0.4660 c         1 MOL      0.608994
    169 O23        -5.7930    4.0200    1.1970 o         1 MOL     -0.681061
    170 O24        -7.8720    3.4090    0.8370 o         1 MOL     -0.681061
    171 H80        -7.0630   -0.8750   -1.6110 hn        1 MOL      0.166621
    172 H81        -6.6350    0.9110    0.5890 h1        1 MOL      0.116031
    173 H82        -7.7580    1.7380   -1.3690 hc        1 MOL      0.008054
    174 H83        -6.3550    1.5830   -2.3540 hc        1 MOL      0.008054
    175 H84        -6.7450    3.8680   -1.6330 hc        1 MOL     -0.000875
    176 H85        -5.2140    3.2350   -1.0800 hc        1 MOL     -0.000875
    177 N15        -3.6400    0.1620   -0.9330 n         1 MOL     -0.436093
    178 C54        -3.8930   -0.1790   -2.3590 c3        1 MOL     -0.074378
    179 H86        -4.0460    0.7370   -2.9300 h1        1 MOL      0.064409
    180 H87        -3.0370   -0.7200   -2.7620 h1        1 MOL      0.064409
    181 H88        -4.7840   -0.8030   -2.4310 h1        1 MOL      0.064409
    182 H89        -2.6480    0.1470   -0.7290 hn        1 MOL      0.330760
    183 Ca1        -3.7840    3.4310    2.6420 Ca        1 MOL      1.704874
    184 O25        -3.1950    3.7510    5.2450 oh        1 MOL     -0.790027
    185 H90        -4.0240    3.6570    5.6990 ho        1 MOL      0.392432
    186 H91        -2.5520    3.3510    5.8280 ho        1 MOL      0.392432
    187 O26        -3.1060    4.9010    0.4260 oh        1 MOL     -0.790027
    188 H92        -3.7980    5.4070    0.0050 ho        1 MOL      0.392432
    189 H93        -2.2990    5.2200    0.0160 ho        1 MOL      0.392432
    190 O27        -3.7120    6.1380    2.9260 oh        1 MOL     -0.790027
    191 H94        -3.3460    6.7600    3.5650 ho        1 MOL      0.392432
    192 H95        -4.4780    6.5930    2.5790 ho        1 MOL      0.392432
    193 O28        -4.7210    1.2980    3.7410 oh        1 MOL     -0.790027
    194 H96        -5.6550    1.1110    3.6250 ho        1 MOL      0.392432
    195 H97        -4.3730    0.5270    4.1890 ho        1 MOL      0.392432
    196 O29        -5.7100    4.5160    4.6510 oh        1 MOL     -0.790027
    197 H98        -6.5440    4.6880    4.2300 ho        1 MOL      0.392432
    198 H99        -5.8890    4.6200    5.5870 ho        1 MOL      0.392432
@<TRIPOS>BOND
     1    1    2 1   
     2    1    4 1   
     3    1    5 1   
     4    1    6 1   
     5    2    3 2   
     6    2    7 1   
     7    7    8 1   
     8    7   15 1   
     9    8    9 1   
    10    8   11 1   
    11    8   16 1   
    12    9   10 2   
    13    9   19 1   
    14   11   12 1   
    15   11   17 1   
    16   11   18 1   
    17   12   13 1   
    18   12   14 1   
    19   19   20 1   
    20   19   28 1   
    21   20   21 1   
    22   20   23 1   
    23   20   29 1   
    24   21   22 2   
    25   21   41 1   
    26   23   24 1   
    27   23   30 1   
    28   23   31 1   
    29   24   25 1   
    30   24   32 1   
    31   24   33 1   
    32   25   26 1   
    33   25   34 1   
    34   25   35 1   
    35   26   27 1   
    36   26   36 1   
    37   26   37 1   
    38   27   38 1   
    39   27   39 1   
    40   27   40 1   
    41   41   42 1   
    42   41   49 1   
    43   42   43 1   
    44   42   45 1   
    45   42   50 1   
    46   43   44 2   
    47   43   53 1   
    48   45   46 1   
    49   45   51 1   
    50   45   52 1   
    51   46   47 1   
    52   46   48 1   
    53   53   54 1   
    54   53   57 1   
    55   54   55 1   
    56   54   58 1   
    57   54   59 1   
    58   55   56 2   
    59   55   60 1   
    60   60   61 1   
    61   60   68 1   
    62   61   62 1   
    63   61   64 1   
    64   61   69 1   
    65   62   63 2   
    66   62   72 1   
    67   64   65 1   
    68   64   70 1   
    69   64   71 1   
    70   65   66 1   
    71   65   67 1   
    72   72   73 1   
    73   72   76 1   
    74   73   74 1   
    75   73   77 1   
    76   73   78 1   
    77   74   75 2   
    78   74   79 1   
    79   79   80 1   
    80   79   86 1   
    81   80   81 1   
    82   80   83 1   
    83   80   87 1   
    84   81   82 2   
    85   81   93 1   
    86   83   84 1   
    87   83   85 1   
    88   83   88 1   
    89   84   90 1   
    90   84   91 1   
    91   84   92 1   
    92   85   89 1   
    93   93   94 1   
    94   93  101 1   
    95   94   95 1   
    96   94   97 1   
    97   94  102 1   
    98   95   96 2   
    99   95  112 1   
   100   97   98 1   
   101   97   99 1   
   102   97  103 1   
   103   98  100 1   
   104   98  104 1   
   105   98  105 1   
   106   99  106 1   
   107   99  107 1   
   108   99  108 1   
   109  100  109 1   
   110  100  110 1   
   111  100  111 1   
   112  112  113 1   
   113  112  119 1   
   114  113  114 1   
   115  113  116 1   
   116  113  120 1   
   117  114  115 2   
   118  114  126 1   
   119  116  117 1   
   120  116  118 1   
   121  116  121 1   
   122  117  123 1   
   123  117  124 1   
   124  117  125 1   
   125  118  122 1   
   126  126  127 1   
   127  126  133 1   
   128  127  128 1   
   129  127  130 1   
   130  127  134 1   
   131  128  129 2   
   132  128  140 1   
   133  130  131 1   
   134  130  132 1   
   135  130  135 1   
   136  131  137 1   
   137  131  138 1   
   138  131  139 1   
   139  132  136 1   
   140  140  141 1   
   141  140  149 1   
   142  141  142 1   
   143  141  144 1   
   144  141  150 1   
   145  142  143 2   
   146  142  162 1   
   147  144  145 1   
   148  144  151 1   
   149  144  152 1   
   150  145  146 1   
   151  145  153 1   
   152  145  154 1   
   153  146  147 1   
   154  146  155 1   
   155  146  156 1   
   156  147  148 1   
   157  147  157 1   
   158  147  158 1   
   159  148  159 1   
   160  148  160 1   
   161  148  161 1   
   162  162  163 1   
   163  162  171 1   
   164  163  164 1   
   165  163  166 1   
   166  163  172 1   
   167  164  165 2   
   168  164  177 1   
   169  166  167 1   
   170  166  173 1   
   171  166  174 1   
   172  167  168 1   
   173  167  175 1   
   174  167  176 1   
   175  168  169 1   
   176  168  170 1   
   177  177  178 1   
   178  177  182 1   
   179  178  179 1   
   180  178  180 1   
   181  178  181 1   
   182  184  185 1   
   183  184  186 1   
   184  187  188 1   
   185  187  189 1   
   186  190  191 1   
   187  190  192 1   
   188  193  194 1   
   189  193  195 1   
   190  196  197 1   
   191  196  198 1   
@<TRIPOS>SUBSTRUCTURE
     1 MOL         1 TEMP              0 ****  ****    0 ROOT
