@<TRIPOS>MOLECULE
MOL
  186   183     1     0     0
SMALL
resp


@<TRIPOS>ATOM
      1 C1        -11.5080    3.2680    4.2430 c3        1 MOL     -0.527301
      2 C2        -11.3140    2.4640    2.9430 c         1 MOL      0.661611
      3 O1        -11.4730    1.2130    2.9360 o         1 MOL     -0.559577
      4 H1        -11.3730    4.3300    4.0370 hc        1 MOL      0.140055
      5 H2        -12.5140    3.0990    4.6290 hc        1 MOL      0.140055
      6 H3        -10.7750    2.9460    4.9820 hc        1 MOL      0.140055
      7 N1        -11.0780    3.1440    1.7820 n         1 MOL     -0.128111
      8 C3        -10.9030    2.5290    0.4690 c3        1 MOL     -0.749199
      9 C4         -9.5810    1.7860    0.2850 c         1 MOL      0.467933
     10 O2         -8.5040    2.0690    0.8340 o         1 MOL     -0.611293
     11 C5        -11.0900    3.6540   -0.6060 c3        1 MOL      0.048023
     12 C6        -10.3080    4.9610   -0.5610 c         1 MOL      0.816741
     13 O3         -9.2980    5.0700    0.2230 o         1 MOL     -0.739244
     14 O4        -10.7180    5.9890   -1.1460 o         1 MOL     -0.739244
     15 H4        -11.0410    4.1470    1.8820 hn        1 MOL      0.168743
     16 H5        -11.6680    1.7650    0.3650 h1        1 MOL      0.250461
     17 H6        -12.1570    3.8820   -0.6040 hc        1 MOL      0.060550
     18 H7        -10.8270    3.1870   -1.5500 hc        1 MOL      0.060550
     19 N2         -9.6350    0.7670   -0.5980 n         1 MOL     -0.038724
     20 C7         -8.6100   -0.1960   -0.8000 c3        1 MOL     -0.354997
     21 C8         -7.4770    0.2440   -1.7720 c         1 MOL      0.674048
     22 O5         -7.3480   -0.1000   -2.9320 o         1 MOL     -0.521648
     23 C9         -9.2900   -1.4470   -1.3820 c3        1 MOL     -0.177728
     24 C10       -10.0020   -2.1490   -0.1930 c3        1 MOL      0.182462
     25 C11       -10.9190   -3.2560   -0.6980 c3        1 MOL     -0.328996
     26 C12       -10.1760   -4.2820   -1.5470 c3        1 MOL      0.308721
     27 N3        -11.0370   -5.4460   -1.8060 n4        1 MOL     -0.567011
     28 H8        -10.5010    0.6440   -1.0930 hn        1 MOL      0.244699
     29 H9         -8.1140   -0.4300    0.1370 h1        1 MOL      0.139751
     30 H10        -8.5620   -2.1710   -1.7500 hc        1 MOL      0.076649
     31 H11        -9.9900   -1.1520   -2.1700 hc        1 MOL      0.076649
     32 H12       -10.6740   -1.4780    0.3380 hc        1 MOL      0.006042
     33 H13        -9.3100   -2.6640    0.4790 hc        1 MOL      0.006042
     34 H14       -11.6720   -2.6810   -1.2470 hc        1 MOL      0.074224
     35 H15       -11.3410   -3.7410    0.1830 hc        1 MOL      0.074224
     36 H16        -9.2140   -4.5480   -1.0910 hx        1 MOL      0.065349
     37 H17        -9.9170   -3.8230   -2.5000 hx        1 MOL      0.065349
     38 H18       -11.3590   -5.8110   -0.9110 hn        1 MOL      0.370057
     39 H19       -11.8440   -5.2340   -2.3830 hn        1 MOL      0.370057
     40 H20       -10.5180   -6.1820   -2.2630 hn        1 MOL      0.370057
     41 N4         -6.6120    0.9470   -1.0310 n         1 MOL     -0.338854
     42 C13        -5.1870    1.2730   -1.2440 c3        1 MOL     -0.063096
     43 C14        -4.4930    1.7450    0.1060 c         1 MOL      0.344657
     44 O6         -5.1840    2.4040    0.9050 o         1 MOL     -0.683964
     45 C15        -4.8890    2.3020   -2.3430 c3        1 MOL      0.119295
     46 C16        -5.7550    3.6310   -2.2050 c         1 MOL      0.411331
     47 O7         -6.5170    3.7700   -1.2280 o         1 MOL     -0.615207
     48 O8         -5.8600    4.4280   -3.1970 o         1 MOL     -0.615207
     49 H21        -6.9500    1.0680   -0.0920 hn        1 MOL      0.346173
     50 H22        -4.7320    0.3280   -1.5440 h1        1 MOL     -0.010010
     51 H23        -5.1600    1.7640   -3.2510 hc        1 MOL      0.024308
     52 H24        -3.8260    2.5140   -2.2570 hc        1 MOL      0.024308
     53 N5         -3.2420    1.4770    0.4130 n         1 MOL     -0.129501
     54 C17        -2.4670    0.3340   -0.0340 c3        1 MOL     -0.315587
     55 C18        -3.0130   -0.9980    0.2390 c         1 MOL      0.743860
     56 O9         -3.4490   -1.3220    1.2940 o         1 MOL     -0.583956
     57 H25        -2.8630    2.0030    1.1980 hn        1 MOL      0.238002
     58 H26        -1.4560    0.5220    0.3330 h1        1 MOL      0.114816
     59 H27        -2.3500    0.4830   -1.1080 h1        1 MOL      0.114816
     60 N6         -3.2040   -1.7380   -0.8680 n         1 MOL     -0.286392
     61 C19        -3.9060   -3.0000   -0.9610 c3        1 MOL     -0.019690
     62 C20        -2.8990   -4.0340   -1.5670 c         1 MOL      0.531157
     63 O10        -2.0000   -3.6390   -2.3850 o         1 MOL     -0.548263
     64 C21        -5.1610   -2.7900   -1.7930 c3        1 MOL     -0.073325
     65 C22        -5.7790   -4.1550   -1.9570 c         1 MOL      0.552750
     66 O11        -6.1650   -4.5450   -3.0700 o         1 MOL     -0.696404
     67 O12        -5.8960   -4.9610   -0.9600 o         1 MOL     -0.696404
     68 H28        -2.8270   -1.3790   -1.7260 hn        1 MOL      0.207081
     69 H29        -4.1810   -3.2730    0.0550 h1        1 MOL      0.005409
     70 H30        -4.9040   -2.3670   -2.7660 hc        1 MOL      0.060557
     71 H31        -5.8840   -2.1460   -1.2910 hc        1 MOL      0.060557
     72 N7         -2.8600   -5.2670   -1.0790 n         1 MOL     -0.183464
     73 C23        -1.7310   -6.2530   -1.2400 c3        1 MOL     -0.303581
     74 C24        -0.5460   -5.9940   -0.2780 c         1 MOL      0.618436
     75 O13         0.4510   -6.6810   -0.3400 o         1 MOL     -0.563772
     76 H32        -3.5470   -5.4770   -0.3780 hn        1 MOL      0.213164
     77 H33        -1.3280   -6.1370   -2.2460 h1        1 MOL      0.146656
     78 H34        -2.0960   -7.2590   -1.0530 h1        1 MOL      0.146656
     79 N8         -0.5960   -4.8700    0.4580 n         1 MOL     -0.360961
     80 C25         0.5220   -4.2980    1.2990 c3        1 MOL     -0.113121
     81 C26         0.9360   -2.9830    0.6290 c         1 MOL      0.819922
     82 O14         0.1240   -2.3770   -0.0700 o         1 MOL     -0.622894
     83 C27         0.1430   -4.0980    2.7510 c3        1 MOL      0.258498
     84 C28        -1.0280   -3.0930    2.9750 c3        1 MOL     -0.180309
     85 O15        -0.2350   -5.3540    3.2600 oh        1 MOL     -0.609837
     86 H35        -1.3700   -4.2350    0.5340 hn        1 MOL      0.230043
     87 H36         1.4250   -4.8930    1.1980 h1        1 MOL      0.056642
     88 H37         1.0100   -3.7600    3.3320 h1        1 MOL     -0.001219
     89 H38         0.5590   -5.8930    3.3300 ho        1 MOL      0.396425
     90 H39        -0.9400   -2.1310    2.4620 hc        1 MOL      0.064894
     91 H40        -1.9760   -3.5490    2.7000 hc        1 MOL      0.064894
     92 H41        -1.0570   -2.8960    4.0480 hc        1 MOL      0.064894
     93 N9          2.1080   -2.4910    0.9880 n         1 MOL     -0.586997
     94 C29         2.5950   -1.1610    0.6340 c3        1 MOL     -0.050178
     95 C30         3.8910   -1.2080   -0.2070 c         1 MOL      0.699501
     96 O16         4.0490   -0.5690   -1.2320 o         1 MOL     -0.509209
     97 C31         2.7340   -0.1650    1.8460 c3        1 MOL      0.044194
     98 C32         1.5460   -0.1670    2.8780 c3        1 MOL      0.008279
     99 C33         3.0660    1.2310    1.3350 c3        1 MOL     -0.210135
    100 C34         1.6200    0.8430    4.0630 c3        1 MOL     -0.157225
    101 H42         2.7290   -3.0350    1.5710 hn        1 MOL      0.282910
    102 H43         1.9700   -0.5900   -0.0610 h1        1 MOL      0.091070
    103 H44         3.6020   -0.5200    2.4050 hc        1 MOL      0.005197
    104 H45         1.5200   -1.1780    3.2860 hc        1 MOL      0.027476
    105 H46         0.5820    0.1300    2.4500 hc        1 MOL      0.027476
    106 H47         3.5650    1.8250    2.0930 hc        1 MOL      0.065924
    107 H48         3.8320    1.2320    0.5550 hc        1 MOL      0.065924
    108 H49         2.2110    1.7720    0.9390 hc        1 MOL      0.065924
    109 H50         1.9740    1.8260    3.7480 hc        1 MOL      0.036547
    110 H51         0.6190    0.8870    4.4740 hc        1 MOL      0.036547
    111 H52         2.1470    0.3530    4.8850 hc        1 MOL      0.036547
    112 N10         4.7930   -2.1620    0.2480 n         1 MOL     -0.596279
    113 C35         6.1420   -2.4870   -0.3500 c3        1 MOL      0.037803
    114 C36         7.1560   -2.5530    0.8770 c         1 MOL      0.541005
    115 O17         6.8020   -2.5770    2.0410 o         1 MOL     -0.501581
    116 C37         6.0440   -3.8150   -1.0310 c3        1 MOL      0.347450
    117 C38         4.8820   -3.9540   -2.0320 c3        1 MOL     -0.277522
    118 O18         7.1800   -4.0510   -1.8290 oh        1 MOL     -0.631557
    119 H53         4.5500   -2.6820    1.0800 hn        1 MOL      0.281368
    120 H54         6.4750   -1.6780   -0.9880 h1        1 MOL      0.145793
    121 H55         5.9280   -4.6360   -0.3260 h1        1 MOL     -0.013414
    122 H56         7.2780   -4.9990   -1.9060 ho        1 MOL      0.390046
    123 H57         3.9120   -4.0790   -1.5310 hc        1 MOL      0.081573
    124 H58         4.9220   -3.0430   -2.6310 hc        1 MOL      0.081573
    125 H59         5.0580   -4.7460   -2.7670 hc        1 MOL      0.081573
    126 N11         8.4710   -2.5580    0.5600 n         1 MOL     -0.579046
    127 C39         9.6050   -2.4080    1.4290 c3        1 MOL      0.009873
    128 C40         9.7780   -0.9750    1.8440 c         1 MOL      0.632333
    129 O19        10.1050   -0.8560    3.0730 o         1 MOL     -0.579718
    130 C41        10.8280   -2.9120    0.6740 c3        1 MOL      0.300126
    131 C42        12.1130   -2.8040    1.4990 c3        1 MOL     -0.477921
    132 O20        11.0820   -2.2560   -0.5520 oh        1 MOL     -0.608298
    133 H60         8.6100   -2.5120   -0.4440 hn        1 MOL      0.283585
    134 H61         9.4780   -3.0360    2.3140 h1        1 MOL      0.134340
    135 H62        10.6880   -3.9510    0.3790 h1        1 MOL      0.032451
    136 H63        11.9290   -2.6110   -0.8180 ho        1 MOL      0.401957
    137 H64        12.9260   -3.1490    0.8620 hc        1 MOL      0.122825
    138 H65        12.4070   -1.7870    1.7750 hc        1 MOL      0.122825
    139 H66        11.9330   -3.4310    2.3700 hc        1 MOL      0.122825
    140 N12         9.6630    0.0730    0.9630 n         1 MOL     -0.360801
    141 C43         9.7530    1.4780    1.1230 c3        1 MOL     -0.085980
    142 C44         8.9340    2.2530    0.0260 c         1 MOL      0.683542
    143 O21         8.6130    1.6810   -0.9750 o         1 MOL     -0.514350
    144 C45        11.2640    1.8820    1.0310 c3        1 MOL     -0.169796
    145 C46        11.8160    1.7000   -0.3970 c3        1 MOL     -0.015480
    146 C47        13.3530    1.7350   -0.3570 c3        1 MOL     -0.039691
    147 C48        13.8730    1.4790   -1.7530 c3        1 MOL     -0.008245
    148 N13        15.3800    1.2040   -1.7380 n4        1 MOL     -0.181692
    149 H67         9.5780   -0.2630    0.0190 hn        1 MOL      0.251901
    150 H68         9.4370    1.7980    2.1260 h1        1 MOL      0.112674
    151 H69        11.8740    1.2640    1.6940 hc        1 MOL      0.070824
    152 H70        11.3600    2.9310    1.2960 hc        1 MOL      0.070824
    153 H71        11.5280    2.3940   -1.1890 hc        1 MOL      0.047423
    154 H72        11.5160    0.6960   -0.6700 hc        1 MOL      0.047423
    155 H73        13.6660    0.9770    0.3540 hc        1 MOL      0.037958
    156 H74        13.7730    2.6750   -0.0060 hc        1 MOL      0.037958
    157 H75        13.7000    2.3610   -2.3780 hx        1 MOL      0.097263
    158 H76        13.3760    0.5850   -2.1190 hx        1 MOL      0.097263
    159 H77        15.7210    0.3960   -1.2250 hn        1 MOL      0.221598
    160 H78        15.6590    1.1090   -2.7060 hn        1 MOL      0.221598
    161 H79        15.8520    1.9620   -1.2690 hn        1 MOL      0.221598
    162 N14         8.5280    3.5170    0.2920 n         1 MOL     -0.659682
    163 C49         7.4990    4.2460   -0.5280 c3        1 MOL      0.180172
    164 C50         6.0720    3.8480   -0.0940 c         1 MOL      0.458094
    165 O22         5.4490    3.1540   -0.8670 o         1 MOL     -0.501765
    166 C51         7.7400    5.7940   -0.5010 c3        1 MOL     -0.040827
    167 C52         7.2380    6.5550   -1.7030 c3        1 MOL     -0.262991
    168 C53         7.8680    6.0640   -3.0400 c         1 MOL      0.736482
    169 O23         7.2090    5.3040   -3.7540 o         1 MOL     -0.657811
    170 O24         9.0420    6.4520   -3.3990 o         1 MOL     -0.657811
    171 H80         8.7360    3.9370    1.1830 hn        1 MOL      0.323565
    172 H81         7.5470    3.9140   -1.5750 h1        1 MOL      0.124257
    173 H82         8.7880    6.0720   -0.4150 hc        1 MOL      0.013952
    174 H83         7.2580    6.1060    0.4230 hc        1 MOL      0.013952
    175 H84         7.4950    7.6100   -1.5610 hc        1 MOL      0.052681
    176 H85         6.1700    6.3540   -1.7480 hc        1 MOL      0.052681
    177 N15         5.4440    4.1990    1.0240 n         1 MOL     -0.368512
    178 C54         5.9700    4.7890    2.2750 c3        1 MOL     -0.038708
    179 H86         5.5730    5.7970    2.3950 h1        1 MOL      0.048688
    180 H87         5.6650    4.1760    3.1230 h1        1 MOL      0.048688
    181 H88         7.0580    4.8310    2.2290 h1        1 MOL      0.048688
    182 H89         4.4600    4.0130    0.9920 hn        1 MOL      0.276841
    183 Ca1        -6.9330    4.3730    1.2340 Ca        1 MOL      1.700098
    184 O25        -7.4340    2.7740    3.4800 oh        1 MOL     -0.861378
    185 H90        -7.3400    2.8040    4.4330 ho        1 MOL      0.439899
    186 H91        -7.5870    1.8530    3.2760 ho        1 MOL      0.439899
@<TRIPOS>BOND
     1    1    2 1   
     2    1    4 1   
     3    1    5 1   
     4    1    6 1   
     5    2    3 2   
     6    2    7 1   
     7    7    8 1   
     8    7   15 1   
     9    8    9 1   
    10    8   11 1   
    11    8   16 1   
    12    9   10 2   
    13    9   19 1   
    14   11   12 1   
    15   11   17 1   
    16   11   18 1   
    17   12   13 1   
    18   12   14 1   
    19   19   20 1   
    20   19   28 1   
    21   20   21 1   
    22   20   23 1   
    23   20   29 1   
    24   21   22 2   
    25   21   41 1   
    26   23   24 1   
    27   23   30 1   
    28   23   31 1   
    29   24   25 1   
    30   24   32 1   
    31   24   33 1   
    32   25   26 1   
    33   25   34 1   
    34   25   35 1   
    35   26   27 1   
    36   26   36 1   
    37   26   37 1   
    38   27   38 1   
    39   27   39 1   
    40   27   40 1   
    41   41   42 1   
    42   41   49 1   
    43   42   43 1   
    44   42   45 1   
    45   42   50 1   
    46   43   44 2   
    47   43   53 1   
    48   45   46 1   
    49   45   51 1   
    50   45   52 1   
    51   46   47 1   
    52   46   48 1   
    53   53   54 1   
    54   53   57 1   
    55   54   55 1   
    56   54   58 1   
    57   54   59 1   
    58   55   56 2   
    59   55   60 1   
    60   60   61 1   
    61   60   68 1   
    62   61   62 1   
    63   61   64 1   
    64   61   69 1   
    65   62   63 2   
    66   62   72 1   
    67   64   65 1   
    68   64   70 1   
    69   64   71 1   
    70   65   66 1   
    71   65   67 1   
    72   72   73 1   
    73   72   76 1   
    74   73   74 1   
    75   73   77 1   
    76   73   78 1   
    77   74   75 2   
    78   74   79 1   
    79   79   80 1   
    80   79   86 1   
    81   80   81 1   
    82   80   83 1   
    83   80   87 1   
    84   81   82 2   
    85   81   93 1   
    86   83   84 1   
    87   83   85 1   
    88   83   88 1   
    89   84   90 1   
    90   84   91 1   
    91   84   92 1   
    92   85   89 1   
    93   93   94 1   
    94   93  101 1   
    95   94   95 1   
    96   94   97 1   
    97   94  102 1   
    98   95   96 2   
    99   95  112 1   
   100   97   98 1   
   101   97   99 1   
   102   97  103 1   
   103   98  100 1   
   104   98  104 1   
   105   98  105 1   
   106   99  106 1   
   107   99  107 1   
   108   99  108 1   
   109  100  109 1   
   110  100  110 1   
   111  100  111 1   
   112  112  113 1   
   113  112  119 1   
   114  113  114 1   
   115  113  116 1   
   116  113  120 1   
   117  114  115 2   
   118  114  126 1   
   119  116  117 1   
   120  116  118 1   
   121  116  121 1   
   122  117  123 1   
   123  117  124 1   
   124  117  125 1   
   125  118  122 1   
   126  126  127 1   
   127  126  133 1   
   128  127  128 1   
   129  127  130 1   
   130  127  134 1   
   131  128  129 2   
   132  128  140 1   
   133  130  131 1   
   134  130  132 1   
   135  130  135 1   
   136  131  137 1   
   137  131  138 1   
   138  131  139 1   
   139  132  136 1   
   140  140  141 1   
   141  140  149 1   
   142  141  142 1   
   143  141  144 1   
   144  141  150 1   
   145  142  143 2   
   146  142  162 1   
   147  144  145 1   
   148  144  151 1   
   149  144  152 1   
   150  145  146 1   
   151  145  153 1   
   152  145  154 1   
   153  146  147 1   
   154  146  155 1   
   155  146  156 1   
   156  147  148 1   
   157  147  157 1   
   158  147  158 1   
   159  148  159 1   
   160  148  160 1   
   161  148  161 1   
   162  162  163 1   
   163  162  171 1   
   164  163  164 1   
   165  163  166 1   
   166  163  172 1   
   167  164  165 2   
   168  164  177 1   
   169  166  167 1   
   170  166  173 1   
   171  166  174 1   
   172  167  168 1   
   173  167  175 1   
   174  167  176 1   
   175  168  169 1   
   176  168  170 1   
   177  177  178 1   
   178  177  182 1   
   179  178  179 1   
   180  178  180 1   
   181  178  181 1   
   182  184  185 1   
   183  184  186 1   
@<TRIPOS>SUBSTRUCTURE
     1 MOL         1 TEMP              0 ****  ****    0 ROOT
