@<TRIPOS>MOLECULE
MOL
  185   180     1     0     0
SMALL
resp


@<TRIPOS>ATOM
      1 C1         -0.1020   -2.8510    6.6750 c3        1 MOL     -0.399831
      2 C2         -0.0680   -2.8420    5.1360 c         1 MOL      0.747812
      3 O1         -1.0210   -3.2220    4.5070 o         1 MOL     -0.588680
      4 H1         -0.2080   -1.8290    7.0410 hc        1 MOL      0.107736
      5 H2         -0.9480   -3.4480    7.0160 hc        1 MOL      0.107736
      6 H3          0.8240   -3.2800    7.0580 hc        1 MOL      0.107736
      7 N1          1.0650   -2.5580    4.5800 n         1 MOL     -0.497139
      8 C3          1.5280   -2.5360    3.1180 c3        1 MOL      0.073051
      9 C4          1.6180   -3.9590    2.4880 c         1 MOL      0.440718
     10 O2          1.6610   -4.9870    3.1140 o         1 MOL     -0.519782
     11 C5          2.8840   -1.8350    3.0470 c3        1 MOL     -0.179164
     12 C6          3.2960   -1.1420    1.7100 c         1 MOL      0.230945
     13 O3          4.3100   -0.3900    1.6130 o         1 MOL     -0.542823
     14 O4          2.6900   -1.3960    0.6710 o         1 MOL     -0.542823
     15 H4          1.8040   -2.6560    5.2650 hn        1 MOL      0.263341
     16 H5          0.8590   -1.9140    2.5210 h1        1 MOL      0.033835
     17 H6          3.6710   -2.5680    3.2270 hc        1 MOL      0.102167
     18 H7          2.8970   -1.0860    3.8380 hc        1 MOL      0.102167
     19 N2          1.6570   -3.9120    1.1500 n         1 MOL     -0.176873
     20 C7          1.5160   -5.0550    0.2400 c3        1 MOL      0.005381
     21 C8          2.8150   -5.3450   -0.5520 c         1 MOL      0.419319
     22 O5          3.1500   -6.4780   -0.8610 o         1 MOL     -0.580216
     23 C9          0.1830   -5.1060   -0.4620 c3        1 MOL     -0.018478
     24 C10        -0.2780   -6.4740   -1.0740 c3        1 MOL      0.350861
     25 C11        -1.6990   -6.5050   -1.5980 c3        1 MOL     -0.087809
     26 C12        -2.1530   -7.8790   -2.0130 c3        1 MOL      0.034437
     27 N3         -3.3650   -7.8040   -2.7740 n4        1 MOL     -0.145686
     28 H8          1.6490   -2.9920    0.7360 hn        1 MOL      0.401197
     29 H9          1.4450   -5.9480    0.8600 h1        1 MOL      0.078784
     30 H10         0.2100   -4.3770   -1.2720 hc        1 MOL     -0.076948
     31 H11        -0.5540   -4.6500    0.2090 hc        1 MOL     -0.076948
     32 H12        -0.0640   -7.3460   -0.4590 hc        1 MOL     -0.068500
     33 H13         0.3240   -6.5940   -1.9690 hc        1 MOL     -0.068500
     34 H14        -1.9160   -5.8520   -2.4540 hc        1 MOL      0.037594
     35 H15        -2.2850   -6.2780   -0.7110 hc        1 MOL      0.037594
     36 H16        -2.3780   -8.4490   -1.1010 hx        1 MOL      0.062633
     37 H17        -1.3230   -8.3270   -2.5630 hx        1 MOL      0.062633
     38 H18        -4.0080   -8.5710   -2.5620 hn        1 MOL      0.241895
     39 H19        -3.8380   -6.9230   -2.6360 hn        1 MOL      0.241895
     40 H20        -3.1470   -7.9910   -3.7380 hn        1 MOL      0.241895
     41 N4          3.6610   -4.3670   -0.8050 n         1 MOL      0.108560
     42 C13         5.0290   -4.5590   -1.2630 c3        1 MOL     -0.085859
     43 C14         6.1680   -4.0690   -0.2610 c         1 MOL      0.379210
     44 O6          7.3010   -4.4370   -0.5330 o         1 MOL     -0.484196
     45 C15         5.3450   -3.8310   -2.6700 c3        1 MOL     -0.268193
     46 C16         4.7910   -2.3460   -2.8110 c         1 MOL      0.652665
     47 O7          4.5220   -1.6700   -1.7160 o         1 MOL     -0.653912
     48 O8          4.6050   -1.9030   -3.9440 o         1 MOL     -0.653912
     49 H21         3.3830   -3.4560   -0.4510 hn        1 MOL     -0.290921
     50 H22         5.2060   -5.6080   -1.5090 h1        1 MOL      0.142315
     51 H23         4.9070   -4.3720   -3.5090 hc        1 MOL      0.105303
     52 H24         6.3960   -3.6690   -2.9240 hc        1 MOL      0.105303
     53 N5          5.8170   -3.2970    0.7750 n         1 MOL     -0.147958
     54 C17         6.7530   -2.5470    1.6230 c3        1 MOL     -0.272748
     55 C18         7.2970   -1.1440    1.1660 c         1 MOL      0.537701
     56 O9          7.8980   -0.4130    1.9800 o         1 MOL     -0.545619
     57 H25         4.8240   -3.0970    0.8870 hn        1 MOL      0.167260
     58 H26         7.5090   -3.3020    1.8180 h1        1 MOL      0.136733
     59 H27         6.1920   -2.4280    2.5580 h1        1 MOL      0.136733
     60 N6          7.0090   -0.7350   -0.1020 n         1 MOL     -0.184282
     61 C19         7.5310    0.5650   -0.7010 c3        1 MOL     -0.106397
     62 C20         6.3950    1.6880   -0.6620 c         1 MOL      0.605118
     63 O10         5.2620    1.3490   -0.9080 o         1 MOL     -0.470659
     64 C21         8.0880    0.3450   -2.1250 c3        1 MOL     -0.225474
     65 C22         9.2650   -0.6820   -2.2300 c         1 MOL      0.633122
     66 N7         10.3490   -0.4270   -1.5780 n         1 MOL     -0.762983
     67 O11         9.1580   -1.7530   -2.8040 o         1 MOL     -0.518123
     68 H28         6.4340   -1.3630   -0.6310 hn        1 MOL      0.267851
     69 H29         8.3160    0.9800   -0.0610 h1        1 MOL      0.055044
     70 H30         8.4500    1.2700   -2.5650 hc        1 MOL      0.076349
     71 H31         7.2580    0.0240   -2.7590 hc        1 MOL      0.076349
     72 H32        10.5790    0.3560   -0.9860 hn        1 MOL      0.359732
     73 H33        11.0880   -1.1090   -1.5020 hn        1 MOL      0.359732
     74 N8          6.7720    2.9990   -0.5110 n         1 MOL     -0.428773
     75 C23         5.9950    4.2000   -0.8070 c3        1 MOL     -0.162862
     76 C24         4.7490    4.3640    0.0310 c         1 MOL      0.553790
     77 O12         4.8730    4.3420    1.2540 o         1 MOL     -0.500414
     78 H34         7.7590    3.1600   -0.3530 hn        1 MOL      0.315932
     79 H35         5.7690    4.3050   -1.8690 h1        1 MOL      0.105432
     80 H36         6.6100    5.0680   -0.5730 h1        1 MOL      0.105432
     81 N9          3.6200    4.7690   -0.5390 n         1 MOL     -0.483928
     82 C25         2.3340    4.9060    0.1580 c3        1 MOL      0.191689
     83 C26         1.7820    3.5370    0.5170 c         1 MOL      0.608029
     84 O13         2.4230    2.4880    0.2040 o         1 MOL     -0.556270
     85 C27         1.4080    5.8630   -0.6100 c3        1 MOL     -0.217069
     86 C28         1.7570    7.3530   -0.6530 ca        1 MOL      0.077331
     87 C29         1.2230    8.1800    0.3250 ca        1 MOL     -0.144273
     88 C30         2.6260    7.9160   -1.6150 ca        1 MOL     -0.144273
     89 C31         1.5370    9.5680    0.3770 ca        1 MOL     -0.272822
     90 C32         3.0370    9.2800   -1.5320 ca        1 MOL     -0.272822
     91 C33         2.5480   10.0550   -0.5100 ca        1 MOL      0.361232
     92 O14         2.9090   11.3570   -0.3750 oh        1 MOL     -0.480150
     93 H37         3.6160    4.6890   -1.5460 hn        1 MOL      0.276838
     94 H38         2.5800    5.4050    1.0920 h1        1 MOL      0.056534
     95 H39         0.4070    5.7430   -0.1850 hc        1 MOL      0.059342
     96 H40         1.1220    5.5150   -1.6000 hc        1 MOL      0.059342
     97 H41         0.6030    7.7890    1.1200 ha        1 MOL      0.115202
     98 H42         2.9850    7.3240   -2.4470 ha        1 MOL      0.115202
     99 H43         1.1170   10.2020    1.1490 ha        1 MOL      0.168834
    100 H44         3.7240    9.7000   -2.2480 ha        1 MOL      0.168834
    101 H45         2.5370   11.7300    0.4300 ho        1 MOL      0.360673
    102 N10         0.7030    3.5170    1.2290 n         1 MOL     -0.634629
    103 C34         0.0500    2.3450    1.9260 c3        1 MOL     -0.004011
    104 C35        -0.2760    1.1490    0.9400 c         1 MOL      0.453568
    105 O15         0.6710    0.5950    0.3430 o         1 MOL     -0.298607
    106 C36         0.9300    1.9790    3.1480 c3        1 MOL      0.319724
    107 C37         0.5090    0.7770    4.0420 c3        1 MOL     -0.184601
    108 C38         1.2320    3.1620    4.0470 c3        1 MOL     -0.620040
    109 C39        -0.8920    0.7570    4.6810 c3        1 MOL     -0.306381
    110 H46         0.2720    4.4140    1.3590 hn        1 MOL      0.341750
    111 H47        -0.8590    2.7920    2.3330 h1        1 MOL      0.084833
    112 H48         1.8810    1.7230    2.6990 hc        1 MOL      0.051322
    113 H49         1.2430    0.4850    4.7970 hc        1 MOL      0.103782
    114 H50         0.4140    0.0060    3.2720 hc        1 MOL      0.103782
    115 H51         1.8100    2.8690    4.9310 hc        1 MOL      0.155778
    116 H52         1.9250    3.8470    3.5520 hc        1 MOL      0.155778
    117 H53         0.2380    3.5980    4.1630 hc        1 MOL      0.155778
    118 H54        -1.1880   -0.2350    5.0120 hc        1 MOL      0.079589
    119 H55        -0.9720    1.4100    5.5450 hc        1 MOL      0.079589
    120 H56        -1.6280    1.0760    3.9420 hc        1 MOL      0.079589
    121 N11        -1.5050    0.7250    0.9150 n         1 MOL     -0.492570
    122 C40        -1.9070   -0.4790    0.1720 c3        1 MOL     -0.070050
    123 C41        -3.4800   -0.7230   -0.0600 c         1 MOL      0.634601
    124 O16        -3.8720   -1.7770   -0.4870 o         1 MOL     -0.553395
    125 C42        -1.4130   -1.6660    0.9540 c3        1 MOL      0.275071
    126 O17        -1.9070   -1.5400    2.3220 oh        1 MOL     -0.618016
    127 H57        -2.2040    1.1420    1.5100 hn        1 MOL      0.303352
    128 H58        -1.4460   -0.5040   -0.8100 h1        1 MOL      0.076473
    129 H59        -0.3390   -1.8210    0.9280 h1        1 MOL      0.006286
    130 H60        -1.8320   -2.5660    0.4830 h1        1 MOL      0.006286
    131 H61        -1.4910   -2.1970    2.8870 ho        1 MOL      0.381368
    132 N12        -4.3080    0.3180    0.1810 n         1 MOL     -0.587534
    133 C43        -5.7500    0.2030   -0.0370 c3        1 MOL      0.022304
    134 C44        -6.1240    0.4650   -1.5020 c         1 MOL      0.770738
    135 O18        -5.3230    1.0060   -2.2200 o         1 MOL     -0.577050
    136 C45        -6.4730    0.9930    1.0040 c3        1 MOL     -0.274209
    137 H62        -4.0320    1.0630    0.8140 hn        1 MOL      0.333178
    138 H63        -5.9400   -0.8520    0.1800 h1        1 MOL      0.143596
    139 H64        -6.1400    0.6900    2.0000 hc        1 MOL      0.093636
    140 H65        -6.1550    2.0290    1.0650 hc        1 MOL      0.093636
    141 H66        -7.5440    0.8210    1.1000 hc        1 MOL      0.093636
    142 N13        -7.3600    0.1350   -2.0000 n         1 MOL     -0.792741
    143 C46        -8.4000   -0.6630   -1.3480 c3        1 MOL      0.318983
    144 C47        -9.8010   -0.3280   -1.9580 c         1 MOL      0.390856
    145 O19       -10.0260   -0.2310   -3.1320 o         1 MOL     -0.503170
    146 C48        -8.0160   -2.1260   -1.3590 c3        1 MOL     -0.218199
    147 H67        -7.4880    0.2280   -2.9900 hn        1 MOL      0.370414
    148 H68        -8.4850   -0.4560   -0.2850 h1        1 MOL      0.006726
    149 H69        -8.7010   -2.7700   -0.8170 hc        1 MOL      0.056949
    150 H70        -8.0070   -2.4570   -2.3930 hc        1 MOL      0.056949
    151 H71        -7.0430   -2.2800   -0.8730 hc        1 MOL      0.056949
    152 N14       -10.8820   -0.1840   -1.1560 n         1 MOL     -0.247954
    153 C49       -10.9490    0.0220    0.3180 c3        1 MOL     -0.354567
    154 C50       -10.3760    1.3400    0.8710 c         1 MOL      0.598318
    155 O20       -10.0370    1.4440    2.0700 o         1 MOL     -0.569231
    156 C51       -12.5040    0.0120    0.6670 c3        1 MOL      0.084645
    157 C52       -13.4240    1.0020    0.0250 c3        1 MOL     -0.235412
    158 C53       -14.1510    0.3200   -1.1190 c         1 MOL      0.748622
    159 O21       -15.3770    0.1820   -1.0390 o         1 MOL     -0.667478
    160 O22       -13.5020   -0.0610   -2.0630 o         1 MOL     -0.667478
    161 H72       -11.8160   -0.2380   -1.5520 hn        1 MOL      0.257800
    162 H73       -10.5820   -0.8390    0.8700 h1        1 MOL      0.121355
    163 H74       -12.5560    0.1400    1.7470 hc        1 MOL      0.033029
    164 H75       -12.8770   -1.0030    0.4970 hc        1 MOL      0.033029
    165 H76       -12.8000    1.8090   -0.3720 hc        1 MOL      0.032098
    166 H77       -14.1130    1.3540    0.7910 hc        1 MOL      0.032098
    167 N15       -10.1270    2.3000   -0.0060 n         1 MOL     -0.296966
    168 C54        -9.4310    3.6210    0.3290 c3        1 MOL     -0.217505
    169 H78        -9.2540    3.6750    1.4040 h1        1 MOL      0.104435
    170 H79        -8.4780    3.6740   -0.1980 h1        1 MOL      0.104435
    171 H80       -10.0640    4.4540    0.0230 h1        1 MOL      0.104435
    172 H81       -10.5880    2.1890   -0.8950 hn        1 MOL      0.282515
    173 Ca1         2.8860    0.3340   -1.2740 Ca        1 MOL      1.688974
    174 O23         0.5870    1.3840   -2.4960 oh        1 MOL     -0.841899
    175 H82         0.1160    2.1620   -2.1970 ho        1 MOL      0.405467
    176 H83         0.0010    0.9840   -3.1440 ho        1 MOL      0.405467
    177 O24         1.0830   -2.0660   -1.6180 oh        1 MOL     -0.841899
    178 H84         1.5020   -2.3240   -2.4410 ho        1 MOL      0.405467
    179 H85         0.1470   -2.1680   -1.7820 ho        1 MOL      0.405467
    180 O25         2.6980   -0.2530   -3.7990 oh        1 MOL     -0.841899
    181 H86         1.8480   -0.3300   -4.2210 ho        1 MOL      0.405467
    182 H87         3.2380   -0.9320   -4.2240 ho        1 MOL      0.405467
    183 O26         3.3040    2.6120   -2.7110 oh        1 MOL     -0.841899
    184 H88         2.5280    2.8840   -3.2010 ho        1 MOL      0.405467
    185 H89         3.9910    2.5190   -3.3650 ho        1 MOL      0.405467
@<TRIPOS>BOND
     1    1    2 1   
     2    1    4 1   
     3    1    5 1   
     4    1    6 1   
     5    2    3 2   
     6    2    7 1   
     7    7    8 1   
     8    7   15 1   
     9    8    9 1   
    10    8   11 1   
    11    8   16 1   
    12    9   10 2   
    13    9   19 1   
    14   11   12 1   
    15   11   17 1   
    16   11   18 1   
    17   12   13 1   
    18   12   14 1   
    19   19   20 1   
    20   19   28 1   
    21   20   21 1   
    22   20   23 1   
    23   20   29 1   
    24   21   22 2   
    25   21   41 1   
    26   23   24 1   
    27   23   30 1   
    28   23   31 1   
    29   24   25 1   
    30   24   32 1   
    31   24   33 1   
    32   25   26 1   
    33   25   34 1   
    34   25   35 1   
    35   26   27 1   
    36   26   36 1   
    37   26   37 1   
    38   27   38 1   
    39   27   39 1   
    40   27   40 1   
    41   41   42 1   
    42   41   49 1   
    43   42   43 1   
    44   42   45 1   
    45   42   50 1   
    46   43   44 2   
    47   43   53 1   
    48   45   46 1   
    49   45   51 1   
    50   45   52 1   
    51   46   47 1   
    52   46   48 1   
    53   53   54 1   
    54   53   57 1   
    55   54   55 1   
    56   54   58 1   
    57   54   59 1   
    58   55   56 2   
    59   55   60 1   
    60   60   61 1   
    61   60   68 1   
    62   61   62 1   
    63   61   64 1   
    64   61   69 1   
    65   62   63 2   
    66   62   74 1   
    67   64   65 1   
    68   64   70 1   
    69   64   71 1   
    70   65   66 1   
    71   65   67 2   
    72   66   72 1   
    73   66   73 1   
    74   74   75 1   
    75   74   78 1   
    76   75   76 1   
    77   75   79 1   
    78   75   80 1   
    79   76   77 2   
    80   76   81 1   
    81   81   82 1   
    82   81   93 1   
    83   82   83 1   
    84   82   85 1   
    85   82   94 1   
    86   83   84 2   
    87   83  102 1   
    88   85   86 1   
    89   85   95 1   
    90   85   96 1   
    91   86   87 ar  
    92   86   88 ar  
    93   87   89 ar  
    94   87   97 1   
    95   88   90 ar  
    96   88   98 1   
    97   89   91 ar  
    98   89   99 1   
    99   90   91 ar  
   100   90  100 1   
   101   91   92 1   
   102   92  101 1   
   103  102  103 1   
   104  102  110 1   
   105  103  104 1   
   106  103  106 1   
   107  103  111 1   
   108  104  105 2   
   109  104  121 1   
   110  106  107 1   
   111  106  108 1   
   112  106  112 1   
   113  107  109 1   
   114  107  113 1   
   115  107  114 1   
   116  108  115 1   
   117  108  116 1   
   118  108  117 1   
   119  109  118 1   
   120  109  119 1   
   121  109  120 1   
   122  121  122 1   
   123  121  127 1   
   124  122  123 1   
   125  122  125 1   
   126  122  128 1   
   127  123  124 2   
   128  123  132 1   
   129  125  126 1   
   130  125  129 1   
   131  125  130 1   
   132  126  131 1   
   133  132  133 1   
   134  132  137 1   
   135  133  134 1   
   136  133  136 1   
   137  133  138 1   
   138  134  135 2   
   139  134  142 1   
   140  136  139 1   
   141  136  140 1   
   142  136  141 1   
   143  142  143 1   
   144  142  147 1   
   145  143  144 1   
   146  143  146 1   
   147  143  148 1   
   148  144  145 2   
   149  144  152 1   
   150  146  149 1   
   151  146  150 1   
   152  146  151 1   
   153  152  153 1   
   154  152  161 1   
   155  153  154 1   
   156  153  156 1   
   157  153  162 1   
   158  154  155 2   
   159  154  167 1   
   160  156  157 1   
   161  156  163 1   
   162  156  164 1   
   163  157  158 1   
   164  157  165 1   
   165  157  166 1   
   166  158  159 1   
   167  158  160 1   
   168  167  168 1   
   169  167  172 1   
   170  168  169 1   
   171  168  170 1   
   172  168  171 1   
   173  174  175 1   
   174  174  176 1   
   175  177  178 1   
   176  177  179 1   
   177  180  181 1   
   178  180  182 1   
   179  183  184 1   
   180  183  185 1   
@<TRIPOS>SUBSTRUCTURE
     1 MOL         1 TEMP              0 ****  ****    0 ROOT
