@<TRIPOS>MOLECULE
MOL
  184   179     1     0     0
SMALL
resp


@<TRIPOS>ATOM
      1 C1         -4.2840    1.2530    3.6450 c3        1 MOL     -0.439606
      2 C2         -5.1070   -0.0620    3.5300 c         1 MOL      0.620758
      3 O1         -4.5530   -1.0660    3.0760 o         1 MOL     -0.591138
      4 H1         -3.9030    1.3560    4.6620 hc        1 MOL      0.127655
      5 H2         -3.4470    1.2210    2.9470 hc        1 MOL      0.127655
      6 H3         -4.9220    2.1040    3.4090 hc        1 MOL      0.127655
      7 N1         -6.4250   -0.0200    3.5660 n         1 MOL     -0.474930
      8 C3         -7.3040   -1.1200    3.0970 c3        1 MOL      0.172561
      9 C4         -7.1660   -1.3750    1.5980 c         1 MOL      0.561893
     10 O2         -6.9400   -0.4730    0.8130 o         1 MOL     -0.441489
     11 C5         -8.8100   -0.8600    3.3940 c3        1 MOL     -0.288205
     12 C6         -9.3050    0.4340    2.7200 c         1 MOL      0.727932
     13 O3         -8.8820    1.5310    3.1230 o         1 MOL     -0.711371
     14 O4        -10.0910    0.3640    1.7420 o         1 MOL     -0.711371
     15 H4         -6.9000    0.8410    3.7820 hn        1 MOL      0.253463
     16 H5         -7.0050   -2.0490    3.5950 h1        1 MOL      0.009351
     17 H6         -9.0340   -0.8150    4.4630 hc        1 MOL      0.031997
     18 H7         -9.4360   -1.5870    2.8920 hc        1 MOL      0.031997
     19 N2         -7.1700   -2.6110    1.1640 n         1 MOL     -0.696478
     20 C7         -6.8200   -3.0090   -0.1700 c3        1 MOL      0.548694
     21 C8         -5.3200   -2.8980   -0.5550 c         1 MOL      0.304275
     22 O5         -4.4610   -2.8600    0.2880 o         1 MOL     -0.469138
     23 C9         -7.4440   -4.3540   -0.6380 c3        1 MOL     -0.400744
     24 H8         -7.5430   -3.3330    1.7660 hn        1 MOL      0.325944
     25 H9         -7.3240   -2.3010   -0.8180 h1        1 MOL     -0.013214
     26 H10        -7.0030   -5.2070   -0.1080 hc        1 MOL      0.088622
     27 H11        -8.5140   -4.3340   -0.4280 hc        1 MOL      0.088622
     28 H12        -7.4670   -4.4500   -1.7180 hc        1 MOL      0.088622
     29 N3         -5.0520   -2.8400   -1.8520 n         1 MOL     -0.383644
     30 C10        -3.7100   -2.8320   -2.4340 c3        1 MOL      0.095277
     31 C11        -3.2930   -4.1740   -3.0800 c         1 MOL      0.509664
     32 O6         -4.1320   -4.9340   -3.7480 o         1 MOL     -0.570780
     33 C12        -3.5220   -1.7170   -3.5290 c3        1 MOL      0.043465
     34 C13        -4.0020   -0.3440   -3.1310 c         1 MOL      0.618681
     35 O7         -5.1960   -0.1550   -3.2610 o         1 MOL     -0.722030
     36 O8         -3.1510    0.5370   -2.7260 o         1 MOL     -0.722030
     37 H13        -5.8650   -2.9960   -2.4190 hn        1 MOL      0.265840
     38 H14        -2.9390   -2.7310   -1.6720 h1        1 MOL      0.071106
     39 H15        -4.1080   -2.0640   -4.3770 hc        1 MOL     -0.019880
     40 H16        -2.5010   -1.5660   -3.8930 hc        1 MOL     -0.019880
     41 N4         -2.0260   -4.4120   -3.0490 n         1 MOL     -0.450718
     42 C14        -1.4300   -5.3800   -4.0340 c3        1 MOL     -0.187339
     43 C15         0.0490   -5.5960   -4.0810 c         1 MOL      0.608884
     44 O9          0.4510   -6.5500   -4.7090 o         1 MOL     -0.553144
     45 H17        -1.4080   -3.7110   -2.6670 hn        1 MOL      0.252718
     46 H18        -1.6870   -5.1640   -5.0740 h1        1 MOL      0.143164
     47 H19        -1.8520   -6.3750   -3.8900 h1        1 MOL      0.143164
     48 N5          0.8880   -4.7500   -3.4730 n         1 MOL     -0.470436
     49 C16         2.3590   -5.0880   -3.4210 c3        1 MOL      0.002471
     50 C17         2.6880   -5.7920   -2.0930 c         1 MOL      0.497003
     51 O10         3.4400   -6.8070   -2.0510 o         1 MOL     -0.515526
     52 C18         3.1600   -3.7930   -3.5880 c3        1 MOL     -0.301528
     53 C19         3.1450   -3.2970   -5.0300 c         1 MOL      0.724045
     54 N6          3.5670   -4.0890   -5.9700 n         1 MOL     -0.769338
     55 O11         2.7320   -2.1860   -5.2610 o         1 MOL     -0.561709
     56 H20         0.6050   -3.8710   -3.0640 hn        1 MOL      0.344289
     57 H21         2.6360   -5.7870   -4.2100 h1        1 MOL      0.115653
     58 H22         4.1650   -3.8830   -3.1950 hc        1 MOL      0.100268
     59 H23         2.7590   -2.9660   -2.9930 hc        1 MOL      0.100268
     60 H24         4.0850   -4.9400   -5.8210 hn        1 MOL      0.352029
     61 H25         3.4150   -3.7510   -6.9120 hn        1 MOL      0.352029
     62 N7          2.0430   -5.3340   -0.9720 n         1 MOL     -0.389554
     63 C20         2.2780   -5.6880    0.4340 c3        1 MOL     -0.085498
     64 C21         3.4340   -4.8700    0.9950 c         1 MOL      0.449183
     65 O12         4.1460   -4.1990    0.2710 o         1 MOL     -0.338337
     66 H26         1.4050   -4.5910   -1.2100 hn        1 MOL      0.269490
     67 H27         2.6850   -6.7020    0.4780 h1        1 MOL      0.099670
     68 H28         1.3580   -5.5760    1.0110 h1        1 MOL      0.099670
     69 N8          3.7340   -5.0390    2.3170 n         1 MOL     -0.287104
     70 C22         4.7950   -4.3090    3.0160 c3        1 MOL     -0.502086
     71 C23         4.3980   -2.8850    3.3480 c         1 MOL      0.601894
     72 O13         5.2050   -1.9130    3.1600 o         1 MOL     -0.552043
     73 C24         5.2710   -5.0560    4.2910 c3        1 MOL      0.583458
     74 C25         4.4460   -4.8340    5.5720 c3        1 MOL     -0.264835
     75 O14         5.3060   -6.4080    4.2210 oh        1 MOL     -0.657363
     76 H29         3.1790   -5.6970    2.8510 hn        1 MOL      0.218939
     77 H30         5.6830   -4.2710    2.3730 h1        1 MOL      0.216529
     78 H31         6.2600   -4.6570    4.5270 h1        1 MOL     -0.002314
     79 H32         4.5210   -6.7610    3.8070 ho        1 MOL      0.388711
     80 H33         3.4180   -5.1330    5.3910 hc        1 MOL      0.058836
     81 H34         4.8710   -5.3790    6.4120 hc        1 MOL      0.058836
     82 H35         4.5090   -3.7640    5.7570 hc        1 MOL      0.058836
     83 N9          3.1170   -2.6020    3.5770 n         1 MOL     -0.298295
     84 C26         2.5640   -1.2460    3.9020 c3        1 MOL     -0.051416
     85 C27         1.7790   -0.5530    2.7140 c         1 MOL      0.386862
     86 O15         0.7420   -1.0400    2.1880 o         1 MOL     -0.456058
     87 C28         1.6130   -1.2630    5.1550 c3        1 MOL      0.200248
     88 C29         2.2070   -1.9000    6.4350 c3        1 MOL      0.000898
     89 C30         1.0620    0.1370    5.4560 c3        1 MOL     -0.269385
     90 C31         3.5560   -1.3390    6.8490 c3        1 MOL     -0.056375
     91 H36         2.5310   -3.4240    3.6550 hn        1 MOL      0.216646
     92 H37         3.4490   -0.6100    4.0240 h1        1 MOL      0.098020
     93 H38         0.7670   -1.8620    4.7980 hc        1 MOL     -0.005446
     94 H39         2.2430   -2.9790    6.2770 hc        1 MOL     -0.008054
     95 H40         1.4200   -1.8270    7.1800 hc        1 MOL     -0.008054
     96 H41         1.9270    0.7840    5.6270 hc        1 MOL      0.077073
     97 H42         0.5280    0.4160    4.5540 hc        1 MOL      0.077073
     98 H43         0.3790    0.0950    6.3040 hc        1 MOL      0.077073
     99 H44         3.5150   -0.2800    6.5720 hc        1 MOL     -0.000509
    100 H45         3.7500   -1.5550    7.9000 hc        1 MOL     -0.000509
    101 H46         4.2710   -1.8130    6.1790 hc        1 MOL     -0.000509
    102 N10         2.1160    0.7080    2.3710 n         1 MOL     -0.374845
    103 C32         1.4590    1.4190    1.2550 c3        1 MOL      0.018903
    104 C33         2.4640    2.0920    0.2790 c         1 MOL      0.386078
    105 O16         2.0870    2.9070   -0.5520 o         1 MOL     -0.404527
    106 C34         0.2320    2.3910    1.6340 c3        1 MOL      0.019858
    107 C35        -1.0130    2.3830    0.7400 c         1 MOL      0.696946
    108 O17        -1.0660    1.5900   -0.2520 o         1 MOL     -0.738400
    109 O18        -2.0570    3.0230    1.0160 o         1 MOL     -0.738400
    110 H47         2.8990    1.1350    2.8600 hn        1 MOL      0.243368
    111 H48         0.9690    0.6190    0.6990 h1        1 MOL      0.125909
    112 H49         0.5830    3.4220    1.5600 hc        1 MOL     -0.011305
    113 H50         0.0260    2.3680    2.7060 hc        1 MOL     -0.011305
    114 N11         3.7940    1.7770    0.3420 n         1 MOL     -0.266419
    115 C36         4.8150    2.1980   -0.5590 c3        1 MOL      0.082064
    116 C37         4.9600    3.7520   -0.5110 c         1 MOL      0.232078
    117 O19         5.2070    4.3780    0.5280 o         1 MOL     -0.468570
    118 C38         6.2110    1.4970   -0.2730 c3        1 MOL     -0.268500
    119 C39         6.2120    0.0900   -0.6180 ca        1 MOL      0.070189
    120 C40         6.1780   -0.2740   -1.9360 ca        1 MOL     -0.110672
    121 C41         6.3010   -0.9150    0.4040 ca        1 MOL     -0.110672
    122 C42         6.1490   -1.6210   -2.3310 ca        1 MOL     -0.095048
    123 C43         6.3100   -2.2470    0.0700 ca        1 MOL     -0.095048
    124 C44         6.2140   -2.6040   -1.3100 ca        1 MOL     -0.176095
    125 H51         4.0880    1.2020    1.1150 hn        1 MOL      0.225856
    126 H52         4.4400    1.8950   -1.5320 h1        1 MOL      0.052182
    127 H53         6.4440    1.6150    0.7820 hc        1 MOL      0.116963
    128 H54         6.9620    2.0120   -0.8700 hc        1 MOL      0.116963
    129 H55         6.3660    0.4580   -2.6960 ha        1 MOL      0.090876
    130 H56         6.4370   -0.5460    1.4170 ha        1 MOL      0.090876
    131 H57         6.0620   -1.9750   -3.3490 ha        1 MOL      0.091172
    132 H58         6.4760   -2.9910    0.8450 ha        1 MOL      0.091172
    133 H59         6.2640   -3.6580   -1.5660 ha        1 MOL      0.114932
    134 N12         4.8520    4.5090   -1.6740 n         1 MOL      0.025125
    135 C45         4.9040    5.9410   -1.7120 c3        1 MOL     -0.002001
    136 C46         3.7050    6.7650   -1.1580 c         1 MOL      0.435435
    137 O20         3.8610    7.9200   -0.8040 o         1 MOL     -0.527311
    138 C47         5.2050    6.2830   -3.1790 c3        1 MOL     -0.238129
    139 C48         4.4650    5.1160   -3.9620 c3        1 MOL     -0.003739
    140 C49         4.5360    3.9940   -2.9800 c3        1 MOL     -0.094912
    141 H60         5.7500    6.2420   -1.0810 h1        1 MOL      0.062020
    142 H61         4.7670    7.2490   -3.4300 hc        1 MOL      0.089533
    143 H62         6.2410    6.2300   -3.5240 hc        1 MOL      0.089533
    144 H63         3.4050    5.3390   -4.1430 hc        1 MOL      0.028343
    145 H64         4.9790    4.7850   -4.8630 hc        1 MOL      0.028343
    146 H65         3.6070    3.4220   -2.9320 h1        1 MOL      0.052653
    147 H66         5.3700    3.3830   -3.3510 h1        1 MOL      0.052653
    148 N13         2.5260    6.1190   -0.9560 n         1 MOL     -0.219905
    149 C50         1.4370    6.6330   -0.1570 c3        1 MOL     -0.293545
    150 C51         1.8070    6.6620    1.3950 c         1 MOL      0.480570
    151 O21         1.2240    7.3800    2.1820 o         1 MOL     -0.543085
    152 C52         0.2110    5.7920   -0.3780 c3        1 MOL      0.210311
    153 C53        -0.4120    5.9140   -1.7750 c3        1 MOL     -0.409043
    154 C54        -1.5190    4.8450   -1.8130 c         1 MOL      0.787939
    155 O22        -1.3170    3.7790   -2.3590 o         1 MOL     -0.726825
    156 O23        -2.6430    5.0930   -1.3380 o         1 MOL     -0.726825
    157 H67         2.5300    5.1390   -1.2010 hn        1 MOL      0.299376
    158 H68         1.2600    7.6960   -0.3550 h1        1 MOL      0.157211
    159 H69        -0.6410    6.0680    0.2380 hc        1 MOL      0.017901
    160 H70         0.3790    4.7370   -0.1870 hc        1 MOL      0.017901
    161 H71         0.2890    5.6260   -2.5600 hc        1 MOL      0.070553
    162 H72        -0.8670    6.9090   -1.8050 hc        1 MOL      0.070553
    163 N14         2.8570    5.9290    1.8100 n         1 MOL     -0.115882
    164 C55         3.2430    5.7130    3.2320 c3        1 MOL     -0.181775
    165 H73         3.3010    6.6740    3.7420 h1        1 MOL      0.076022
    166 H74         2.4970    5.0870    3.7200 h1        1 MOL      0.076022
    167 H75         4.2140    5.2210    3.2740 h1        1 MOL      0.076022
    168 H76         3.3020    5.3500    1.1160 hn        1 MOL      0.108206
    169 Ca1        -3.4540    2.6150   -1.1120 Ca        1 MOL      1.787357
    170 O24        -3.8810    3.1910   -3.8280 oh        1 MOL     -0.841665
    171 H77        -3.1490    3.0130   -4.4120 ho        1 MOL      0.409890
    172 H78        -4.5420    2.5410   -4.0670 ho        1 MOL      0.409890
    173 O25        -4.2510    0.4230    0.1020 oh        1 MOL     -0.841665
    174 H79        -5.1180    0.0020    0.1180 ho        1 MOL      0.409890
    175 H80        -3.6590   -0.2240    0.4920 ho        1 MOL      0.409890
    176 O26        -5.4860    4.8580   -2.1710 oh        1 MOL     -0.841665
    177 H81        -6.1890    4.2110   -2.2110 ho        1 MOL      0.409890
    178 H82        -5.0600    4.7960   -3.0300 ho        1 MOL      0.409890
    179 O27        -6.3320    2.3000   -1.3350 oh        1 MOL     -0.841665
    180 H83        -6.9130    1.8660   -1.9600 ho        1 MOL      0.409890
    181 H84        -6.6840    2.0690   -0.4740 ho        1 MOL      0.409890
    182 O28        -4.8340    3.6990    0.8670 oh        1 MOL     -0.841665
    183 H85        -5.7620    3.5530    1.0690 ho        1 MOL      0.409890
    184 H86        -4.6630    4.6010    1.1640 ho        1 MOL      0.409890
@<TRIPOS>BOND
     1    1    2 1   
     2    1    4 1   
     3    1    5 1   
     4    1    6 1   
     5    2    3 2   
     6    2    7 1   
     7    7    8 1   
     8    7   15 1   
     9    8    9 1   
    10    8   11 1   
    11    8   16 1   
    12    9   10 2   
    13    9   19 1   
    14   11   12 1   
    15   11   17 1   
    16   11   18 1   
    17   12   13 1   
    18   12   14 1   
    19   19   20 1   
    20   19   24 1   
    21   20   21 1   
    22   20   23 1   
    23   20   25 1   
    24   21   22 2   
    25   21   29 1   
    26   23   26 1   
    27   23   27 1   
    28   23   28 1   
    29   29   30 1   
    30   29   37 1   
    31   30   31 1   
    32   30   33 1   
    33   30   38 1   
    34   31   32 2   
    35   31   41 1   
    36   33   34 1   
    37   33   39 1   
    38   33   40 1   
    39   34   35 1   
    40   34   36 1   
    41   41   42 1   
    42   41   45 1   
    43   42   43 1   
    44   42   46 1   
    45   42   47 1   
    46   43   44 2   
    47   43   48 1   
    48   48   49 1   
    49   48   56 1   
    50   49   50 1   
    51   49   52 1   
    52   49   57 1   
    53   50   51 2   
    54   50   62 1   
    55   52   53 1   
    56   52   58 1   
    57   52   59 1   
    58   53   54 1   
    59   53   55 2   
    60   54   60 1   
    61   54   61 1   
    62   62   63 1   
    63   62   66 1   
    64   63   64 1   
    65   63   67 1   
    66   63   68 1   
    67   64   65 2   
    68   64   69 1   
    69   69   70 1   
    70   69   76 1   
    71   70   71 1   
    72   70   73 1   
    73   70   77 1   
    74   71   72 2   
    75   71   83 1   
    76   73   74 1   
    77   73   75 1   
    78   73   78 1   
    79   74   80 1   
    80   74   81 1   
    81   74   82 1   
    82   75   79 1   
    83   83   84 1   
    84   83   91 1   
    85   84   85 1   
    86   84   87 1   
    87   84   92 1   
    88   85   86 2   
    89   85  102 1   
    90   87   88 1   
    91   87   89 1   
    92   87   93 1   
    93   88   90 1   
    94   88   94 1   
    95   88   95 1   
    96   89   96 1   
    97   89   97 1   
    98   89   98 1   
    99   90   99 1   
   100   90  100 1   
   101   90  101 1   
   102  102  103 1   
   103  102  110 1   
   104  103  104 1   
   105  103  106 1   
   106  103  111 1   
   107  104  105 2   
   108  104  114 1   
   109  106  107 1   
   110  106  112 1   
   111  106  113 1   
   112  107  108 1   
   113  107  109 1   
   114  114  115 1   
   115  114  125 1   
   116  115  116 1   
   117  115  118 1   
   118  115  126 1   
   119  116  117 2   
   120  116  134 1   
   121  118  119 1   
   122  118  127 1   
   123  118  128 1   
   124  119  120 ar  
   125  119  121 ar  
   126  120  122 ar  
   127  120  129 1   
   128  121  123 ar  
   129  121  130 1   
   130  122  124 ar  
   131  122  131 1   
   132  123  124 ar  
   133  123  132 1   
   134  124  133 1   
   135  134  135 1   
   136  134  140 1   
   137  135  136 1   
   138  135  138 1   
   139  135  141 1   
   140  136  137 2   
   141  136  148 1   
   142  138  139 1   
   143  138  142 1   
   144  138  143 1   
   145  139  140 1   
   146  139  144 1   
   147  139  145 1   
   148  140  146 1   
   149  140  147 1   
   150  148  149 1   
   151  148  157 1   
   152  149  150 1   
   153  149  152 1   
   154  149  158 1   
   155  150  151 2   
   156  150  163 1   
   157  152  153 1   
   158  152  159 1   
   159  152  160 1   
   160  153  154 1   
   161  153  161 1   
   162  153  162 1   
   163  154  155 1   
   164  154  156 1   
   165  163  164 1   
   166  163  168 1   
   167  164  165 1   
   168  164  166 1   
   169  164  167 1   
   170  170  171 1   
   171  170  172 1   
   172  173  174 1   
   173  173  175 1   
   174  176  177 1   
   175  176  178 1   
   176  179  180 1   
   177  179  181 1   
   178  182  183 1   
   179  182  184 1   
@<TRIPOS>SUBSTRUCTURE
     1 MOL         1 TEMP              0 ****  ****    0 ROOT
