@<TRIPOS>MOLECULE
MOL
  181   177     1     0     0
SMALL
resp


@<TRIPOS>ATOM
      1 C1          5.3800   -5.6230    4.3780 c3        1 MOL     -0.422321
      2 C2          4.9890   -4.1290    4.2680 c         1 MOL      0.690053
      3 O1          4.0090   -3.6760    4.8550 o         1 MOL     -0.563931
      4 H1          6.4360   -5.7050    4.6350 hc        1 MOL      0.106118
      5 H2          4.7800   -6.1000    5.1540 hc        1 MOL      0.106118
      6 H3          5.1990   -6.1190    3.4240 hc        1 MOL      0.106118
      7 N1          5.7400   -3.3870    3.4030 n         1 MOL     -0.576484
      8 C3          7.0510   -3.5340    2.7740 c3        1 MOL      0.154789
      9 C4          6.9600   -3.8860    1.3060 c         1 MOL      0.640325
     10 O2          6.1970   -3.2440    0.5470 o         1 MOL     -0.604889
     11 C5          8.0000   -2.3960    3.1210 c3        1 MOL     -0.046335
     12 C6          7.4850   -0.9990    2.8770 c         1 MOL      0.645541
     13 O3          8.0180   -0.0480    3.5300 o         1 MOL     -0.660930
     14 O4          6.5180   -0.7740    2.0480 o         1 MOL     -0.660930
     15 H4          5.3070   -2.4930    3.2440 hn        1 MOL      0.293515
     16 H5          7.5930   -4.3480    3.2570 h1        1 MOL      0.008475
     17 H6          8.9780   -2.5140    2.6570 hc        1 MOL      0.009333
     18 H7          8.2280   -2.4030    4.1830 hc        1 MOL      0.009333
     19 N2          7.6920   -4.8850    0.8600 n         1 MOL     -0.620661
     20 C7          7.9910   -5.3150   -0.5890 c3        1 MOL      0.298940
     21 C8          8.6450   -4.3130   -1.5030 c         1 MOL      0.391112
     22 O5          9.5890   -4.5820   -2.1960 o         1 MOL     -0.516214
     23 C9          6.6980   -5.9020   -1.1240 c3        1 MOL     -0.367082
     24 H8          8.3010   -5.2930    1.5570 hn        1 MOL      0.293067
     25 H9          8.7400   -6.1080   -0.5480 h1        1 MOL      0.036865
     26 H10         6.0030   -6.0350   -0.2910 hc        1 MOL      0.110828
     27 H11         6.0720   -5.2720   -1.7560 hc        1 MOL      0.110828
     28 H12         6.8830   -6.8320   -1.6650 hc        1 MOL      0.110828
     29 N3          8.2470   -3.0240   -1.3690 n         1 MOL     -0.200089
     30 C10         8.5980   -1.9430   -2.2490 c3        1 MOL     -0.014403
     31 C11         8.4700   -0.6980   -1.4620 c         1 MOL      0.365732
     32 O6          7.7220   -0.6630   -0.5240 o         1 MOL     -0.465860
     33 C12         7.6450   -1.6970   -3.4480 c3        1 MOL     -0.026849
     34 C13         6.1900   -1.8560   -3.1390 c         1 MOL      0.687825
     35 O7          5.5810   -1.0960   -2.3820 o         1 MOL     -0.691293
     36 O8          5.5720   -2.7840   -3.7560 o         1 MOL     -0.691293
     37 H13         7.7270   -2.8360   -0.5260 hn        1 MOL      0.139383
     38 H14         9.5440   -2.1160   -2.7440 h1        1 MOL      0.063785
     39 H15         7.9010   -2.3360   -4.2940 hc        1 MOL      0.005472
     40 H16         7.7340   -0.6920   -3.8670 hc        1 MOL      0.005472
     41 N4          9.3770    0.2900   -1.6640 n         1 MOL     -0.238505
     42 C14         9.7150    1.4950   -0.8540 c3        1 MOL     -0.447034
     43 C15         8.7220    2.6310   -1.0340 c         1 MOL      0.691262
     44 O9          9.0110    3.6870   -0.3540 o         1 MOL     -0.557306
     45 H17         9.8640    0.1280   -2.5290 hn        1 MOL      0.216056
     46 H18        10.6700    1.7680   -1.2990 h1        1 MOL      0.206946
     47 H19         9.8420    1.1340    0.1700 h1        1 MOL      0.206946
     48 N5          7.6120    2.4990   -1.8210 n         1 MOL     -0.462315
     49 C16         6.5400    3.4260   -1.9600 c3        1 MOL     -0.229431
     50 C17         5.5750    3.1230   -0.7440 c         1 MOL      0.717393
     51 O10         5.3540    1.9880   -0.1880 o         1 MOL     -0.679070
     52 C18         5.9340    3.2140   -3.2930 c3        1 MOL     -0.078262
     53 C19         6.5140    3.9070   -4.5250 c         1 MOL      0.729521
     54 N6          7.8040    3.8180   -4.7960 n         1 MOL     -0.793940
     55 O11         5.7610    4.5310   -5.2430 o         1 MOL     -0.577110
     56 H20         7.5780    1.5890   -2.2430 hn        1 MOL      0.273109
     57 H21         6.9310    4.4450   -1.9450 h1        1 MOL      0.137113
     58 H22         4.9040    3.5590   -3.1670 hc        1 MOL      0.037596
     59 H23         5.9700    2.1830   -3.6190 hc        1 MOL      0.037596
     60 H24         8.5290    3.2750   -4.3410 hn        1 MOL      0.351537
     61 H25         8.0670    4.4600   -5.5390 hn        1 MOL      0.351537
     62 N7          4.9160    4.1910   -0.2870 n         1 MOL     -0.264683
     63 C20         3.8680    4.2480    0.7770 c3        1 MOL     -0.224635
     64 C21         3.0410    5.5290    0.8420 c         1 MOL      0.639570
     65 O12         3.4960    6.6550    0.4970 o         1 MOL     -0.562967
     66 H26         5.0790    5.0830   -0.7300 hn        1 MOL      0.234836
     67 H27         4.4260    4.2230    1.7130 h1        1 MOL      0.125531
     68 H28         3.2240    3.3800    0.6480 h1        1 MOL      0.125531
     69 N8          1.7220    5.5240    1.1040 n         1 MOL     -0.517340
     70 C22         1.0160    4.3960    1.6580 c3        1 MOL      0.068014
     71 C23        -0.3450    4.1010    1.0240 c         1 MOL      0.373335
     72 O13        -0.9910    4.9290    0.3660 o         1 MOL     -0.510450
     73 C24         0.7230    4.6660    3.1510 c3        1 MOL      0.430547
     74 C25         1.9670    4.3910    3.9740 c3        1 MOL     -0.381263
     75 O14         0.4620    6.0060    3.4800 oh        1 MOL     -0.624002
     76 H29         1.2480    6.4140    0.9530 hn        1 MOL      0.340061
     77 H30         1.5380    3.4620    1.4820 h1        1 MOL      0.028552
     78 H31        -0.0700    4.0380    3.5310 h1        1 MOL      0.004504
     79 H32        -0.4480    6.2660    3.3740 ho        1 MOL      0.408726
     80 H33         2.6990    5.1570    3.7290 hc        1 MOL      0.093015
     81 H34         1.8370    4.3360    5.0600 hc        1 MOL      0.093015
     82 H35         2.2590    3.3510    3.7990 hc        1 MOL      0.093015
     83 N9         -0.8930    2.9130    1.3460 n         1 MOL     -0.258942
     84 C26        -2.1620    2.3510    0.8920 c3        1 MOL     -0.044560
     85 C27        -3.0000    1.7300    2.0900 c         1 MOL      0.506875
     86 O15        -2.3830    1.3210    3.0980 o         1 MOL     -0.560214
     87 C28        -1.7640    1.3480   -0.2090 c3        1 MOL      0.247067
     88 C29        -0.8050    0.3080    0.2670 c3        1 MOL      0.252937
     89 C30        -1.1660    2.0630   -1.4600 c3        1 MOL     -0.302051
     90 C31        -0.4210   -0.6570   -0.8360 c3        1 MOL     -0.010923
     91 H36        -0.3130    2.4210    2.0140 hn        1 MOL      0.164805
     92 H37        -2.7070    3.1860    0.4490 h1        1 MOL      0.157107
     93 H38        -2.6120    0.7740   -0.5840 hc        1 MOL     -0.010748
     94 H39        -1.1690   -0.2010    1.1530 hc        1 MOL     -0.125969
     95 H40         0.0550    0.8730    0.6230 hc        1 MOL     -0.125969
     96 H41        -1.6800    3.0220   -1.5440 hc        1 MOL      0.059000
     97 H42        -0.1000    2.1930   -1.2860 hc        1 MOL      0.059000
     98 H43        -1.2740    1.4640   -2.3530 hc        1 MOL      0.059000
     99 H44        -1.3390   -0.8910   -1.3820 hc        1 MOL     -0.023333
    100 H45         0.3800   -0.2140   -1.4210 hc        1 MOL     -0.023333
    101 H46         0.0350   -1.5200   -0.3560 hc        1 MOL     -0.023333
    102 N10        -4.3540    1.6310    1.9820 n         1 MOL     -0.556134
    103 C32        -5.2160    1.9300    0.8760 c3        1 MOL      0.050243
    104 C33        -6.5770    1.2000    0.9120 c         1 MOL      0.737088
    105 O16        -7.0170    0.6780    1.9460 o         1 MOL     -0.555025
    106 C34        -5.5550    3.4350    0.9580 c3        1 MOL      0.044342
    107 C35        -6.0810    3.9860    2.2240 c         1 MOL      0.590395
    108 O17        -7.2750    4.4200    2.2010 o         1 MOL     -0.695118
    109 O18        -5.4050    3.8270    3.3180 o         1 MOL     -0.695118
    110 H47        -4.7880    1.3970    2.8690 hn        1 MOL      0.362852
    111 H48        -4.7120    1.6380   -0.0460 h1        1 MOL     -0.002054
    112 H49        -6.1860    3.8080    0.1500 hc        1 MOL     -0.048601
    113 H50        -4.6270    3.9620    0.7370 hc        1 MOL     -0.048601
    114 N11        -7.3080    1.1500   -0.2510 n         1 MOL     -0.723618
    115 C36        -8.6250    0.5690   -0.4660 c3        1 MOL      0.512159
    116 C37        -8.7990   -0.1620   -1.8690 c         1 MOL      0.079119
    117 O19        -8.4610    0.4610   -2.9000 o         1 MOL     -0.476416
    118 C38        -9.6380    1.6710   -0.3260 c3        1 MOL     -0.163718
    119 C39       -11.0200    1.2960   -0.4790 ca        1 MOL      0.075607
    120 C40       -11.7790    1.7480   -1.5740 ca        1 MOL     -0.135259
    121 C41       -11.6120    0.5060    0.5640 ca        1 MOL     -0.135259
    122 C42       -13.0400    1.2230   -1.8080 ca        1 MOL     -0.138915
    123 C43       -12.9000    0.0290    0.3670 ca        1 MOL     -0.138915
    124 C44       -13.5920    0.3740   -0.8430 ca        1 MOL     -0.121137
    125 H51        -6.9720    1.6170   -1.0870 hn        1 MOL      0.361554
    126 H52        -8.8700   -0.1610    0.3000 h1        1 MOL     -0.015249
    127 H53        -9.3960    2.3490   -1.1410 hc        1 MOL      0.051954
    128 H54        -9.4380    2.2600    0.5710 hc        1 MOL      0.051954
    129 H55       -11.3820    2.3120   -2.4100 ha        1 MOL      0.128076
    130 H56       -10.9930    0.3140    1.4270 ha        1 MOL      0.128076
    131 H57       -13.5770    1.5030   -2.6990 ha        1 MOL      0.109635
    132 H58       -13.3030   -0.4840    1.2220 ha        1 MOL      0.109635
    133 H59       -14.6050    0.0570   -1.0710 ha        1 MOL      0.078658
    134 N12        -9.4080   -1.3390   -2.0300 n         1 MOL      0.284666
    135 C45        -9.9820   -2.2510   -1.0940 c3        1 MOL     -0.001609
    136 C46        -8.9730   -2.8200   -0.1460 c         1 MOL      0.248990
    137 O20        -9.2590   -3.0600    1.0580 o         1 MOL     -0.546005
    138 C47       -10.7090   -3.3450   -1.8030 c3        1 MOL      0.072951
    139 C48       -11.1780   -2.5620   -2.9930 c3        1 MOL     -0.049542
    140 C49        -9.9010   -1.7600   -3.3450 c3        1 MOL     -0.237340
    141 H60       -10.6680   -1.6350   -0.5180 h1        1 MOL      0.032730
    142 H61       -10.0910   -4.2100   -2.0470 hc        1 MOL      0.013693
    143 H62       -11.5490   -3.7120   -1.2220 hc        1 MOL      0.013693
    144 H63       -11.4060   -3.3120   -3.7470 hc        1 MOL      0.007183
    145 H64       -12.0140   -1.9300   -2.7040 hc        1 MOL      0.007183
    146 H65        -9.0730   -2.3840   -3.6940 h1        1 MOL      0.098008
    147 H66       -10.1190   -0.9050   -3.9840 h1        1 MOL      0.098008
    148 N13        -7.6900   -2.9650   -0.5960 n         1 MOL     -0.048604
    149 C50        -6.5750   -3.4460    0.2350 c3        1 MOL      0.009778
    150 C51        -6.6350   -4.9880    0.4070 c         1 MOL      0.337060
    151 O21        -6.4020   -5.7430   -0.5570 o         1 MOL     -0.540227
    152 C52        -5.1680   -3.0990   -0.3710 c3        1 MOL     -0.183733
    153 C53        -4.9700   -1.5950   -0.6060 c3        1 MOL      0.067994
    154 C54        -5.3410   -0.9980   -1.9580 c         1 MOL      0.618966
    155 O22        -4.7630    0.0400   -2.3660 o         1 MOL     -0.652815
    156 O23        -6.2320   -1.6250   -2.6040 o         1 MOL     -0.652815
    157 H67        -7.5200   -2.6810   -1.5460 hn        1 MOL      0.102978
    158 H68        -6.7370   -2.9840    1.2090 h1        1 MOL      0.129488
    159 H69        -4.8720   -3.6150   -1.2880 hc        1 MOL      0.069513
    160 H70        -4.3630   -3.3560    0.3110 hc        1 MOL      0.069513
    161 H71        -3.9450   -1.4250   -0.2840 hc        1 MOL     -0.043289
    162 H72        -5.6330   -1.1630    0.1460 hc        1 MOL     -0.043289
    163 N14        -7.0220   -5.5910    1.5850 n         1 MOL     -0.296223
    164 C55        -7.2620   -4.9170    2.9100 c3        1 MOL     -0.061270
    165 H73        -8.2830   -5.1130    3.2380 h1        1 MOL      0.054347
    166 H74        -6.5620   -5.3080    3.6490 h1        1 MOL      0.054347
    167 H75        -7.1150   -3.8420    2.8040 h1        1 MOL      0.054347
    168 H76        -7.1000   -6.5880    1.4930 hn        1 MOL      0.246631
    169 Ca1         4.9680   -0.7630    0.0870 Ca        1 MOL      1.741702
    170 O24         3.3060   -1.9440    1.7510 oh        1 MOL     -0.836979
    171 H77         2.7670   -2.5110    1.1890 ho        1 MOL      0.415680
    172 H78         2.7000   -1.6390    2.4280 ho        1 MOL      0.415680
    173 O25         3.0190    0.4210   -1.1680 oh        1 MOL     -0.836979
    174 H79         2.5720    1.2600   -1.0960 ho        1 MOL      0.415680
    175 H80         2.7300    0.0650   -2.0040 ho        1 MOL      0.415680
    176 O26         3.8490    0.8330    2.2040 oh        1 MOL     -0.836979
    177 H81         4.1700    0.8720    3.1080 ho        1 MOL      0.415680
    178 H82         2.9470    1.1500    2.2570 ho        1 MOL      0.415680
    179 O27         2.9530   -2.7780   -0.8690 oh        1 MOL     -0.836979
    180 H83         3.2710   -3.4150   -1.5020 ho        1 MOL      0.415680
    181 H84         2.1030   -3.1140   -0.5990 ho        1 MOL      0.415680
@<TRIPOS>BOND
     1    1    2 1   
     2    1    4 1   
     3    1    5 1   
     4    1    6 1   
     5    2    3 2   
     6    2    7 1   
     7    7    8 1   
     8    7   15 1   
     9    8    9 1   
    10    8   11 1   
    11    8   16 1   
    12    9   10 2   
    13    9   19 1   
    14   11   12 1   
    15   11   17 1   
    16   11   18 1   
    17   12   13 1   
    18   12   14 1   
    19   19   20 1   
    20   19   24 1   
    21   20   21 1   
    22   20   23 1   
    23   20   25 1   
    24   21   22 2   
    25   21   29 1   
    26   23   26 1   
    27   23   27 1   
    28   23   28 1   
    29   29   30 1   
    30   29   37 1   
    31   30   31 1   
    32   30   33 1   
    33   30   38 1   
    34   31   32 2   
    35   31   41 1   
    36   33   34 1   
    37   33   39 1   
    38   33   40 1   
    39   34   35 1   
    40   34   36 1   
    41   41   42 1   
    42   41   45 1   
    43   42   43 1   
    44   42   46 1   
    45   42   47 1   
    46   43   44 2   
    47   43   48 1   
    48   48   49 1   
    49   48   56 1   
    50   49   50 1   
    51   49   52 1   
    52   49   57 1   
    53   50   51 2   
    54   50   62 1   
    55   52   53 1   
    56   52   58 1   
    57   52   59 1   
    58   53   54 1   
    59   53   55 2   
    60   54   60 1   
    61   54   61 1   
    62   62   63 1   
    63   62   66 1   
    64   63   64 1   
    65   63   67 1   
    66   63   68 1   
    67   64   65 2   
    68   64   69 1   
    69   69   70 1   
    70   69   76 1   
    71   70   71 1   
    72   70   73 1   
    73   70   77 1   
    74   71   72 2   
    75   71   83 1   
    76   73   74 1   
    77   73   75 1   
    78   73   78 1   
    79   74   80 1   
    80   74   81 1   
    81   74   82 1   
    82   75   79 1   
    83   83   84 1   
    84   83   91 1   
    85   84   85 1   
    86   84   87 1   
    87   84   92 1   
    88   85   86 2   
    89   85  102 1   
    90   87   88 1   
    91   87   89 1   
    92   87   93 1   
    93   88   90 1   
    94   88   94 1   
    95   88   95 1   
    96   89   96 1   
    97   89   97 1   
    98   89   98 1   
    99   90   99 1   
   100   90  100 1   
   101   90  101 1   
   102  102  103 1   
   103  102  110 1   
   104  103  104 1   
   105  103  106 1   
   106  103  111 1   
   107  104  105 2   
   108  104  114 1   
   109  106  107 1   
   110  106  112 1   
   111  106  113 1   
   112  107  108 1   
   113  107  109 1   
   114  114  115 1   
   115  114  125 1   
   116  115  116 1   
   117  115  118 1   
   118  115  126 1   
   119  116  117 2   
   120  116  134 1   
   121  118  119 1   
   122  118  127 1   
   123  118  128 1   
   124  119  120 ar  
   125  119  121 ar  
   126  120  122 ar  
   127  120  129 1   
   128  121  123 ar  
   129  121  130 1   
   130  122  124 ar  
   131  122  131 1   
   132  123  124 ar  
   133  123  132 1   
   134  124  133 1   
   135  134  135 1   
   136  134  140 1   
   137  135  136 1   
   138  135  138 1   
   139  135  141 1   
   140  136  137 2   
   141  136  148 1   
   142  138  139 1   
   143  138  142 1   
   144  138  143 1   
   145  139  140 1   
   146  139  144 1   
   147  139  145 1   
   148  140  146 1   
   149  140  147 1   
   150  148  149 1   
   151  148  157 1   
   152  149  150 1   
   153  149  152 1   
   154  149  158 1   
   155  150  151 2   
   156  150  163 1   
   157  152  153 1   
   158  152  159 1   
   159  152  160 1   
   160  153  154 1   
   161  153  161 1   
   162  153  162 1   
   163  154  155 1   
   164  154  156 1   
   165  163  164 1   
   166  163  168 1   
   167  164  165 1   
   168  164  166 1   
   169  164  167 1   
   170  170  171 1   
   171  170  172 1   
   172  173  174 1   
   173  173  175 1   
   174  176  177 1   
   175  176  178 1   
   176  179  180 1   
   177  179  181 1   
@<TRIPOS>SUBSTRUCTURE
     1 MOL         1 TEMP              0 ****  ****    0 ROOT
