@<TRIPOS>MOLECULE
MOL
  195   189     1     0     0
SMALL
resp


@<TRIPOS>ATOM
      1 C1        -12.7200   -5.1430   -3.4330 c3        1 MOL     -0.316367
      2 C2        -12.6720   -3.6750   -2.7070 c         1 MOL      0.575296
      3 O1        -13.6580   -2.9470   -2.9030 o         1 MOL     -0.526182
      4 H1        -13.2800   -5.0700   -4.3640 hc        1 MOL      0.088146
      5 H2        -11.7040   -5.4760   -3.6460 hc        1 MOL      0.088146
      6 H3        -13.2060   -5.8610   -2.7720 hc        1 MOL      0.088146
      7 N1        -11.5980   -3.3900   -1.9570 n         1 MOL     -0.250754
      8 C3        -11.4810   -2.2430   -1.0820 c3        1 MOL     -0.135360
      9 C4        -10.0340   -1.7070   -1.0740 c         1 MOL      0.555055
     10 O2         -9.0860   -2.5070   -1.1240 o         1 MOL     -0.650628
     11 C5        -11.9800   -2.6270    0.4060 c3        1 MOL      0.162665
     12 C6        -11.7250   -4.0470    0.8950 c         1 MOL      0.387127
     13 O3        -10.5570   -4.4880    0.8770 o         1 MOL     -0.591960
     14 O4        -12.6660   -4.7840    1.2640 o         1 MOL     -0.591960
     15 H4        -10.8600   -4.0750   -1.9940 hn        1 MOL      0.194772
     16 H5        -12.0650   -1.4810   -1.5840 h1        1 MOL      0.059100
     17 H6        -13.0470   -2.4130    0.4440 hc        1 MOL     -0.015499
     18 H7        -11.4420   -1.9310    1.0470 hc        1 MOL     -0.015499
     19 N2         -9.7720   -0.3610   -0.9780 n         1 MOL     -0.416864
     20 C7         -8.4740    0.2980   -1.2110 c3        1 MOL      0.147340
     21 C8         -7.6110    0.1950    0.0860 c         1 MOL      0.304173
     22 O5         -8.1190    0.2010    1.2340 o         1 MOL     -0.511528
     23 C9         -8.6470    1.7110   -1.7890 c3        1 MOL     -0.314694
     24 C10        -7.4260    2.6800   -1.7820 c3        1 MOL      0.027493
     25 C11        -7.3870    3.4700   -0.4310 c3        1 MOL      0.032280
     26 C12        -6.1800    4.4730   -0.4860 c3        1 MOL      0.021873
     27 N3         -6.2180    5.2410    0.8050 n4        1 MOL     -0.478551
     28 H8        -10.5930    0.2160   -0.9610 hn        1 MOL      0.291619
     29 H9         -7.8780   -0.3550   -1.8550 h1        1 MOL      0.109061
     30 H10        -9.5870    2.1410   -1.4390 hc        1 MOL      0.117194
     31 H11        -8.8960    1.5260   -2.8370 hc        1 MOL      0.117194
     32 H12        -7.5210    3.2850   -2.6870 hc        1 MOL      0.040945
     33 H13        -6.5820    1.9970   -1.7900 hc        1 MOL      0.040945
     34 H14        -7.1870    2.7890    0.3970 hc        1 MOL      0.033211
     35 H15        -8.3240    4.0050   -0.2440 hc        1 MOL      0.033211
     36 H16        -6.4510    5.1040   -1.3370 hx        1 MOL      0.078485
     37 H17        -5.2130    4.0260   -0.7120 hx        1 MOL      0.078485
     38 H18        -7.0940    5.7110    0.9710 hn        1 MOL      0.351435
     39 H19        -6.0310    4.6180    1.5770 hn        1 MOL      0.351435
     40 H20        -5.5930    6.0280    0.7860 hn        1 MOL      0.351435
     41 N4         -6.2870    0.1270    0.0090 n         1 MOL     -0.502228
     42 C13        -5.3130    0.1880    1.0110 c3        1 MOL     -0.046224
     43 C14        -3.9470    0.5360    0.4480 c         1 MOL      0.599501
     44 O6         -3.6850    0.3890   -0.7630 o         1 MOL     -0.541319
     45 C15        -5.1120   -1.0710    1.8690 c3        1 MOL     -0.187790
     46 C16        -5.0440   -2.4210    1.1330 c         1 MOL      0.728242
     47 O7         -6.0310   -2.9260    0.5550 o         1 MOL     -0.670065
     48 O8         -3.9720   -3.1150    1.0810 o         1 MOL     -0.670065
     49 H21        -5.8460   -0.0270   -0.8910 hn        1 MOL      0.307541
     50 H22        -5.5810    0.9890    1.7100 h1        1 MOL      0.169951
     51 H23        -6.0340   -1.1990    2.4410 hc        1 MOL      0.046549
     52 H24        -4.3480   -0.8880    2.6260 hc        1 MOL      0.046549
     53 N5         -3.0190    0.9870    1.2440 n         1 MOL     -0.485906
     54 C17        -3.1180    1.7180    2.5290 c3        1 MOL     -0.004727
     55 C18        -3.0520    3.2140    2.3680 c         1 MOL      0.482173
     56 O9         -3.3650    3.6870    1.3100 o         1 MOL     -0.565061
     57 H25        -2.1290    1.0010    0.7580 hn        1 MOL      0.354066
     58 H26        -2.3890    1.3410    3.2550 h1        1 MOL      0.071268
     59 H27        -4.1130    1.6220    2.9640 h1        1 MOL      0.071268
     60 N6         -2.4240    3.9380    3.2880 n         1 MOL     -0.263488
     61 C19        -2.1420    5.3800    3.2360 c3        1 MOL     -0.055311
     62 C20        -1.0220    5.5790    2.1700 c         1 MOL      0.761340
     63 O10        -0.1240    4.7460    2.0110 o         1 MOL     -0.579388
     64 C21        -1.7690    5.9290    4.5760 c3        1 MOL     -0.311373
     65 C22        -1.5000    7.4180    4.5420 c         1 MOL      0.725768
     66 O11        -0.3720    7.8280    4.8660 o         1 MOL     -0.693992
     67 O12        -2.4270    8.2210    4.1880 o         1 MOL     -0.693992
     68 H28        -2.2060    3.4590    4.1510 hn        1 MOL      0.215997
     69 H29        -3.0980    5.8740    3.0040 h1        1 MOL     -0.010341
     70 H30        -0.7820    5.5060    4.7570 hc        1 MOL      0.092039
     71 H31        -2.5620    5.6370    5.2620 hc        1 MOL      0.092039
     72 N7         -1.3020    6.4890    1.2090 n         1 MOL     -0.599100
     73 C23        -0.4250    6.6550    0.0180 c3        1 MOL      0.152759
     74 C24        -0.4590    5.6300   -1.1320 c         1 MOL      0.380834
     75 O13        -0.2130    5.9990   -2.2620 o         1 MOL     -0.521657
     76 H32        -2.2670    6.7770    1.1520 hn        1 MOL      0.291129
     77 H33         0.6250    6.6450    0.3330 h1        1 MOL      0.068324
     78 H34        -0.5050    7.6680   -0.3790 h1        1 MOL      0.068324
     79 N8         -0.5720    4.3490   -0.7350 n         1 MOL     -0.387554
     80 C25        -0.7700    3.2830   -1.6690 c3        1 MOL      0.115072
     81 C26        -0.1850    1.9430   -1.2220 c         1 MOL      0.374743
     82 O14        -0.3890    1.5950   -0.0530 o         1 MOL     -0.477531
     83 C27        -2.2610    3.0500   -2.0230 c3        1 MOL      0.507294
     84 C28        -3.2350    4.2370   -2.1700 c3        1 MOL     -0.432572
     85 O15        -2.3420    2.3540   -3.3040 oh        1 MOL     -0.682768
     86 H35        -0.7750    4.2010    0.2370 hn        1 MOL      0.259182
     87 H36        -0.3070    3.4940   -2.6350 h1        1 MOL      0.064008
     88 H37        -2.6770    2.3240   -1.3150 h1        1 MOL     -0.045056
     89 H38        -3.1480    1.8390   -3.2670 ho        1 MOL      0.397412
     90 H39        -4.2060    3.9600   -2.5830 hc        1 MOL      0.100624
     91 H40        -3.3030    4.7350   -1.2130 hc        1 MOL      0.100624
     92 H41        -2.7170    4.9230   -2.8440 hc        1 MOL      0.100624
     93 N9          0.5370    1.2500   -2.0680 n         1 MOL     -0.290330
     94 C29         1.1220   -0.0560   -1.7180 c3        1 MOL     -0.165254
     95 C30         2.5870    0.0960   -1.1800 c         1 MOL      0.622221
     96 O16         3.0200   -0.7560   -0.4260 o         1 MOL     -0.545099
     97 C31         1.2990   -1.0260   -2.9640 c3        1 MOL      0.279032
     98 C32         0.1950   -0.8300   -3.9780 c3        1 MOL     -0.090139
     99 C33         1.4780   -2.4610   -2.6250 c3        1 MOL     -0.365696
    100 C34        -1.1930   -1.3750   -3.5160 c3        1 MOL     -0.074671
    101 H42         0.8420    1.6750   -2.9410 hn        1 MOL      0.254790
    102 H43         0.5840   -0.4890   -0.8760 h1        1 MOL      0.131862
    103 H44         2.2360   -0.8240   -3.4820 hc        1 MOL     -0.011253
    104 H45         0.5250   -1.2880   -4.9050 hc        1 MOL      0.009309
    105 H46         0.0960    0.1950   -4.3190 hc        1 MOL      0.009309
    106 H47         1.4740   -3.0130   -3.5670 hc        1 MOL      0.100761
    107 H48         2.5010   -2.4700   -2.2400 hc        1 MOL      0.100761
    108 H49         0.8140   -2.9020   -1.8830 hc        1 MOL      0.100761
    109 H50        -1.0370   -2.3480   -3.0470 hc        1 MOL      0.026565
    110 H51        -1.7310   -0.7330   -2.8240 hc        1 MOL      0.026565
    111 H52        -1.9230   -1.5150   -4.3170 hc        1 MOL      0.026565
    112 N10         3.3490    1.1080   -1.5850 n         1 MOL     -0.528959
    113 C35         4.6060    1.4850   -0.9420 c3        1 MOL      0.011323
    114 C36         5.7390    1.8350   -1.8780 c         1 MOL      0.544170
    115 O17         5.5740    2.7140   -2.7760 o         1 MOL     -0.549474
    116 C37         4.4730    2.7100    0.0470 c3        1 MOL      0.261417
    117 C38         3.3270    2.6120    1.0570 c3        1 MOL     -0.343045
    118 O18         5.6580    2.8180    0.8360 oh        1 MOL     -0.638352
    119 H53         2.9200    1.7910   -2.1960 hn        1 MOL      0.284872
    120 H54         5.0380    0.7180   -0.2870 h1        1 MOL      0.137268
    121 H55         4.4160    3.6350   -0.5350 h1        1 MOL      0.025842
    122 H56         5.7300    3.6920    1.2270 ho        1 MOL      0.411370
    123 H57         2.3660    2.5390    0.5530 hc        1 MOL      0.113233
    124 H58         3.3410    1.7530    1.7390 hc        1 MOL      0.113233
    125 H59         3.2490    3.4510    1.7450 hc        1 MOL      0.113233
    126 N11         6.9080    1.1870   -1.7850 n         1 MOL     -0.423932
    127 C39         8.1610    1.5460   -2.5250 c3        1 MOL     -0.002426
    128 C40         9.2340    0.4510   -2.4600 c         1 MOL      0.521190
    129 O19         9.5610   -0.1420   -3.4860 o         1 MOL     -0.545765
    130 C41         8.6640    2.8050   -1.7620 c3        1 MOL      0.254205
    131 C42         9.9920    3.3010   -2.3650 c3        1 MOL     -0.305918
    132 O20         8.8260    2.5760   -0.3750 oh        1 MOL     -0.632160
    133 H60         6.9860    0.5460   -1.0160 hn        1 MOL      0.248218
    134 H61         8.0200    1.8510   -3.5620 h1        1 MOL      0.109337
    135 H62         7.9200    3.5880   -1.8570 h1        1 MOL      0.048850
    136 H63         8.2680    3.1350    0.1690 ho        1 MOL      0.418682
    137 H64        10.8130    2.5930   -2.3500 hc        1 MOL      0.081707
    138 H65         9.8290    3.5890   -3.3980 hc        1 MOL      0.081707
    139 H66        10.4120    4.1980   -1.8990 hc        1 MOL      0.081707
    140 N12         9.7000    0.0820   -1.2520 n         1 MOL     -0.305840
    141 C43        10.6280   -0.9440   -0.9680 c3        1 MOL      0.061603
    142 C44        10.2750   -1.5440    0.3910 c         1 MOL      0.394774
    143 O21         9.9680   -0.8090    1.3360 o         1 MOL     -0.467928
    144 C45        12.0290   -0.3020   -0.7860 c3        1 MOL     -0.213619
    145 C46        13.1150   -1.2990   -1.1490 c3        1 MOL      0.022313
    146 C47        14.5130   -0.7180   -0.6840 c3        1 MOL     -0.050216
    147 C48        15.6980   -1.6280   -1.2300 c3        1 MOL      0.159041
    148 N13        17.0710   -1.0120   -1.0840 n4        1 MOL     -0.394093
    149 H67         9.3480    0.5530   -0.4360 hn        1 MOL      0.221319
    150 H68        10.5510   -1.6690   -1.7830 h1        1 MOL      0.054297
    151 H69        12.1290   -0.0400    0.2750 hc        1 MOL      0.111314
    152 H70        12.1630    0.5770   -1.4170 hc        1 MOL      0.111314
    153 H71        13.1280   -1.3450   -2.2390 hc        1 MOL     -0.003583
    154 H72        12.8790   -2.2580   -0.6770 hc        1 MOL     -0.003583
    155 H73        14.5840   -0.7690    0.3980 hc        1 MOL      0.033247
    156 H74        14.5640    0.3140   -1.0240 hc        1 MOL      0.033247
    157 H75        15.5300   -1.8770   -2.2740 hx        1 MOL      0.050478
    158 H76        15.7170   -2.6180   -0.7770 hx        1 MOL      0.050478
    159 H77        17.1040   -0.1960   -1.6940 hn        1 MOL      0.289975
    160 H78        17.3460   -0.7710   -0.1450 hn        1 MOL      0.289975
    161 H79        17.7290   -1.7030   -1.4050 hn        1 MOL      0.289975
    162 N14        10.4300   -2.8860    0.5580 n         1 MOL     -0.340155
    163 C49        10.1250   -3.6190    1.7500 c3        1 MOL      0.337434
    164 C50         8.6240   -3.6360    2.1110 c         1 MOL      0.320653
    165 O22         8.3090   -3.4060    3.2920 o         1 MOL     -0.514835
    166 C51        10.6770   -5.0040    1.7660 c3        1 MOL     -0.226072
    167 C52        11.8370   -5.1520    2.8900 c3        1 MOL     -0.335560
    168 C53        12.3140   -6.6770    2.9890 c         1 MOL      0.731118
    169 O23        13.5000   -6.9090    3.3610 o         1 MOL     -0.670950
    170 O24        11.5110   -7.5960    2.6130 o         1 MOL     -0.670950
    171 H80        10.5820   -3.3880   -0.3040 hn        1 MOL      0.263009
    172 H81        10.5560   -3.0600    2.5850 h1        1 MOL     -0.008527
    173 H82        11.0190   -5.2340    0.7530 hc        1 MOL      0.082703
    174 H83         9.8440   -5.6520    2.0420 hc        1 MOL      0.082703
    175 H84        11.2580   -5.0570    3.8090 hc        1 MOL      0.104199
    176 H85        12.6340   -4.4370    2.7200 hc        1 MOL      0.104199
    177 N15         7.6660   -3.8420    1.1930 n         1 MOL     -0.322461
    178 C54         7.8000   -4.3760   -0.1090 c3        1 MOL      0.175062
    179 H86         6.9910   -4.0050   -0.7370 h1        1 MOL     -0.020612
    180 H87         8.7570   -4.0710   -0.5310 h1        1 MOL     -0.020612
    181 H88         7.7530   -5.4630   -0.0620 h1        1 MOL     -0.020612
    182 H89         6.7800   -3.6350    1.6250 hn        1 MOL      0.285431
    183 Ca1        -8.0850   -4.3750    0.5560 Ca        1 MOL      1.713036
    184 O25        -6.1660   -6.5700    0.4120 oh        1 MOL     -0.860774
    185 H90        -5.4900   -6.4530   -0.2550 ho        1 MOL      0.424333
    186 H91        -6.3300   -7.5190    0.4270 ho        1 MOL      0.424333
    187 O26        -8.6380   -2.1820    2.0920 oh        1 MOL     -0.860774
    188 H92        -9.5690   -2.1910    2.3240 ho        1 MOL      0.424333
    189 H93        -8.3990   -1.2580    2.1230 ho        1 MOL      0.424333
    190 O27        -9.2100   -6.6910    1.7660 oh        1 MOL     -0.860774
    191 H94       -10.1150   -6.5340    2.0370 ho        1 MOL      0.424333
    192 H95        -8.8820   -7.3530    2.3840 ho        1 MOL      0.424333
    193 O28        -7.1520   -4.9530    2.9090 oh        1 MOL     -0.860774
    194 H96        -6.8940   -4.3880    3.6320 ho        1 MOL      0.424333
    195 H97        -7.4340   -5.7660    3.3370 ho        1 MOL      0.424333
@<TRIPOS>BOND
     1    1    2 1   
     2    1    4 1   
     3    1    5 1   
     4    1    6 1   
     5    2    3 2   
     6    2    7 1   
     7    7    8 1   
     8    7   15 1   
     9    8    9 1   
    10    8   11 1   
    11    8   16 1   
    12    9   10 2   
    13    9   19 1   
    14   11   12 1   
    15   11   17 1   
    16   11   18 1   
    17   12   13 1   
    18   12   14 1   
    19   19   20 1   
    20   19   28 1   
    21   20   21 1   
    22   20   23 1   
    23   20   29 1   
    24   21   22 2   
    25   21   41 1   
    26   23   24 1   
    27   23   30 1   
    28   23   31 1   
    29   24   25 1   
    30   24   32 1   
    31   24   33 1   
    32   25   26 1   
    33   25   34 1   
    34   25   35 1   
    35   26   27 1   
    36   26   36 1   
    37   26   37 1   
    38   27   38 1   
    39   27   39 1   
    40   27   40 1   
    41   41   42 1   
    42   41   49 1   
    43   42   43 1   
    44   42   45 1   
    45   42   50 1   
    46   43   44 2   
    47   43   53 1   
    48   45   46 1   
    49   45   51 1   
    50   45   52 1   
    51   46   47 1   
    52   46   48 1   
    53   53   54 1   
    54   53   57 1   
    55   54   55 1   
    56   54   58 1   
    57   54   59 1   
    58   55   56 2   
    59   55   60 1   
    60   60   61 1   
    61   60   68 1   
    62   61   62 1   
    63   61   64 1   
    64   61   69 1   
    65   62   63 2   
    66   62   72 1   
    67   64   65 1   
    68   64   70 1   
    69   64   71 1   
    70   65   66 1   
    71   65   67 1   
    72   72   73 1   
    73   72   76 1   
    74   73   74 1   
    75   73   77 1   
    76   73   78 1   
    77   74   75 2   
    78   74   79 1   
    79   79   80 1   
    80   79   86 1   
    81   80   81 1   
    82   80   83 1   
    83   80   87 1   
    84   81   82 2   
    85   81   93 1   
    86   83   84 1   
    87   83   85 1   
    88   83   88 1   
    89   84   90 1   
    90   84   91 1   
    91   84   92 1   
    92   85   89 1   
    93   93   94 1   
    94   93  101 1   
    95   94   95 1   
    96   94   97 1   
    97   94  102 1   
    98   95   96 2   
    99   95  112 1   
   100   97   98 1   
   101   97   99 1   
   102   97  103 1   
   103   98  100 1   
   104   98  104 1   
   105   98  105 1   
   106   99  106 1   
   107   99  107 1   
   108   99  108 1   
   109  100  109 1   
   110  100  110 1   
   111  100  111 1   
   112  112  113 1   
   113  112  119 1   
   114  113  114 1   
   115  113  116 1   
   116  113  120 1   
   117  114  115 2   
   118  114  126 1   
   119  116  117 1   
   120  116  118 1   
   121  116  121 1   
   122  117  123 1   
   123  117  124 1   
   124  117  125 1   
   125  118  122 1   
   126  126  127 1   
   127  126  133 1   
   128  127  128 1   
   129  127  130 1   
   130  127  134 1   
   131  128  129 2   
   132  128  140 1   
   133  130  131 1   
   134  130  132 1   
   135  130  135 1   
   136  131  137 1   
   137  131  138 1   
   138  131  139 1   
   139  132  136 1   
   140  140  141 1   
   141  140  149 1   
   142  141  142 1   
   143  141  144 1   
   144  141  150 1   
   145  142  143 2   
   146  142  162 1   
   147  144  145 1   
   148  144  151 1   
   149  144  152 1   
   150  145  146 1   
   151  145  153 1   
   152  145  154 1   
   153  146  147 1   
   154  146  155 1   
   155  146  156 1   
   156  147  148 1   
   157  147  157 1   
   158  147  158 1   
   159  148  159 1   
   160  148  160 1   
   161  148  161 1   
   162  162  163 1   
   163  162  171 1   
   164  163  164 1   
   165  163  166 1   
   166  163  172 1   
   167  164  165 2   
   168  164  177 1   
   169  166  167 1   
   170  166  173 1   
   171  166  174 1   
   172  167  168 1   
   173  167  175 1   
   174  167  176 1   
   175  168  169 1   
   176  168  170 1   
   177  177  178 1   
   178  177  182 1   
   179  178  179 1   
   180  178  180 1   
   181  178  181 1   
   182  184  185 1   
   183  184  186 1   
   184  187  188 1   
   185  187  189 1   
   186  190  191 1   
   187  190  192 1   
   188  193  194 1   
   189  193  195 1   
@<TRIPOS>SUBSTRUCTURE
     1 MOL         1 TEMP              0 ****  ****    0 ROOT
