@<TRIPOS>MOLECULE
MOL
  195   189     1     0     0
SMALL
resp


@<TRIPOS>ATOM
      1 C1          3.4270    5.2920    2.1870 c3        1 MOL     -0.181089
      2 C2          2.0810    4.8600    1.5490 c         1 MOL      0.650692
      3 O1          1.7780    3.7130    1.5870 o         1 MOL     -0.498406
      4 H1          3.7990    6.1820    1.6790 hc        1 MOL      0.016929
      5 H2          3.2750    5.5120    3.2430 hc        1 MOL      0.016929
      6 H3          4.1530    4.4850    2.0840 hc        1 MOL      0.016929
      7 N1          1.3630    5.7940    0.9630 n         1 MOL     -0.540584
      8 C3          0.2330    5.5560    0.0420 c3        1 MOL     -0.311162
      9 C4         -0.9980    4.8990    0.7020 c         1 MOL      0.676893
     10 O2         -2.0530    4.8440    0.0220 o         1 MOL     -0.574666
     11 C5          0.6140    4.7700   -1.1910 c3        1 MOL     -0.116694
     12 C6          1.6040    5.4820   -2.0080 c         1 MOL      0.623009
     13 O3          2.6990    4.9390   -2.3120 o         1 MOL     -0.659016
     14 O4          1.2500    6.6690   -2.3260 o         1 MOL     -0.659016
     15 H4          1.5730    6.7560    1.1820 hn        1 MOL      0.368634
     16 H5         -0.0560    6.5670   -0.2440 h1        1 MOL      0.174961
     17 H6         -0.2870    4.5740   -1.7740 hc        1 MOL      0.100229
     18 H7          0.9450    3.7590   -0.9660 hc        1 MOL      0.100229
     19 N2         -0.9980    4.5300    1.9990 n         1 MOL     -0.351989
     20 C7         -2.0910    3.8540    2.6870 c3        1 MOL      0.077515
     21 C8         -3.2730    4.8120    2.9450 c         1 MOL      0.391145
     22 O5         -3.0120    5.9150    3.4110 o         1 MOL     -0.539597
     23 C9         -1.6350    3.0560    3.9030 c3        1 MOL      0.146114
     24 C10        -1.0080    3.8670    5.0800 c3        1 MOL     -0.002100
     25 C11        -0.7700    1.9170    3.4290 c3        1 MOL     -0.125658
     26 C12         0.3900    4.4800    5.0940 c3        1 MOL     -0.139139
     27 H8         -0.1180    4.5950    2.4800 hn        1 MOL      0.190842
     28 H9         -2.5130    3.0890    2.0420 h1        1 MOL      0.055098
     29 H10        -2.5150    2.6070    4.3560 hc        1 MOL      0.019641
     30 H11        -1.0090    3.1440    5.8840 hc        1 MOL      0.014386
     31 H12        -1.6410    4.6940    5.4130 hc        1 MOL      0.014386
     32 H13         0.1750    2.2240    2.9770 hc        1 MOL      0.033867
     33 H14        -0.5340    1.3360    4.3210 hc        1 MOL      0.033867
     34 H15        -1.2430    1.2850    2.6840 hc        1 MOL      0.033867
     35 H16         0.1900    5.4310    4.5930 hc        1 MOL      0.036994
     36 H17         0.6190    4.7350    6.1320 hc        1 MOL      0.036994
     37 H18         1.1900    3.9910    4.5440 hc        1 MOL      0.036994
     38 N3         -4.5460    4.3420    2.8800 n         1 MOL     -0.350382
     39 C13        -4.9670    3.0260    2.4690 c3        1 MOL     -0.079184
     40 C14        -4.8490    2.7640    0.9820 c         1 MOL      0.531438
     41 O6         -4.5090    1.6270    0.6190 o         1 MOL     -0.560015
     42 C15        -6.3420    2.5980    2.8600 c3        1 MOL      0.059676
     43 C16        -6.6400    2.8790    4.2860 c         1 MOL      0.649813
     44 O7         -7.5160    3.7670    4.4700 o         1 MOL     -0.692192
     45 O8         -6.0850    2.2090    5.2160 o         1 MOL     -0.692192
     46 H19        -5.2300    4.9910    3.2270 hn        1 MOL      0.276988
     47 H20        -4.4120    2.2430    2.9870 h1        1 MOL      0.039602
     48 H21        -6.4160    1.5420    2.6130 hc        1 MOL     -0.026808
     49 H22        -7.0290    3.1400    2.2240 hc        1 MOL     -0.026808
     50 N4         -5.2080    3.7800    0.1680 n         1 MOL     -0.223469
     51 C17        -5.1660    3.6830   -1.2760 c3        1 MOL     -0.295803
     52 C18        -6.4110    2.8080   -1.7180 c         1 MOL      0.484972
     53 O9         -7.6420    3.1100   -1.3570 o         1 MOL     -0.584192
     54 H23        -5.3670    4.7200    0.4920 hn        1 MOL      0.257939
     55 H24        -4.2330    3.2340   -1.6100 h1        1 MOL      0.136542
     56 H25        -5.3310    4.6340   -1.7700 h1        1 MOL      0.136542
     57 N5         -6.1390    1.8360   -2.4810 n         1 MOL     -0.441043
     58 C19        -7.1520    0.8690   -2.9230 c3        1 MOL      0.280255
     59 C20        -7.6140   -0.1640   -1.9090 c         1 MOL      0.394282
     60 O10        -8.4710   -0.9620   -2.1790 o         1 MOL     -0.548267
     61 C21        -6.7980    0.2310   -4.3200 c3        1 MOL     -0.454372
     62 C22        -5.5440   -0.7250   -4.2180 c         1 MOL      0.765337
     63 O11        -4.9100   -0.9830   -5.2710 o         1 MOL     -0.717791
     64 O12        -5.1160   -1.0760   -3.1190 o         1 MOL     -0.717791
     65 H26        -5.1440    1.6390   -2.5430 hn        1 MOL      0.320477
     66 H27        -8.0580    1.4600   -3.0610 h1        1 MOL      0.044109
     67 H28        -6.6270    1.0440   -5.0390 hc        1 MOL      0.090239
     68 H29        -7.6380   -0.3320   -4.7290 hc        1 MOL      0.090239
     69 N6         -7.0940   -0.0200   -0.7090 n         1 MOL     -0.166924
     70 C23        -7.4930   -0.6500    0.5380 c3        1 MOL     -0.020558
     71 C24        -6.9950   -2.1090    0.6100 c         1 MOL      0.418932
     72 O13        -7.2920   -2.8480    1.5530 o         1 MOL     -0.554966
     73 H30        -6.4870    0.7820   -0.5920 hn        1 MOL      0.160574
     74 H31        -8.5780   -0.7310    0.5890 h1        1 MOL      0.081410
     75 H32        -7.3300   -0.0160    1.4040 h1        1 MOL      0.081410
     76 N7         -6.3130   -2.6650   -0.4270 n         1 MOL     -0.115053
     77 C25        -5.7160   -3.9920   -0.5910 c3        1 MOL      0.179916
     78 C26        -4.7410   -4.5190    0.5390 c         1 MOL      0.299446
     79 O14        -4.5080   -5.6940    0.7460 o         1 MOL     -0.479095
     80 C27        -6.8120   -4.9770   -1.0860 c3        1 MOL      0.032365
     81 C28        -7.2990   -4.7000   -2.5330 c3        1 MOL     -0.177885
     82 C29        -8.3900   -5.6430   -3.0230 c         1 MOL      0.681179
     83 N8         -9.0460   -5.2630   -4.0770 n         1 MOL     -0.773861
     84 O15        -8.5850   -6.7690   -2.5820 o         1 MOL     -0.593903
     85 H33        -6.2560   -2.0350   -1.2200 hn        1 MOL      0.062364
     86 H34        -5.0850   -3.9100   -1.4750 h1        1 MOL      0.050578
     87 H35        -7.6150   -4.7880   -0.3640 hc        1 MOL     -0.007738
     88 H36        -6.4450   -5.9880   -0.9490 hc        1 MOL     -0.007738
     89 H37        -6.4450   -4.8240   -3.1960 hc        1 MOL      0.076008
     90 H38        -7.7350   -3.7040   -2.5600 hc        1 MOL      0.076008
     91 H39        -8.8130   -4.4590   -4.6440 hn        1 MOL      0.333520
     92 H40        -9.6150   -5.9320   -4.5890 hn        1 MOL      0.333520
     93 N9         -4.1220   -3.5520    1.2660 n         1 MOL     -0.169898
     94 C30        -3.2050   -3.5750    2.4510 c3        1 MOL      0.027947
     95 C31        -1.6740   -3.3250    2.2300 c         1 MOL      0.447386
     96 O16        -0.8320   -3.7220    3.0470 o         1 MOL     -0.545503
     97 C32        -3.6930   -2.5700    3.5530 c3        1 MOL      0.124966
     98 C33        -4.0090   -1.0960    3.0410 c3        1 MOL     -0.257717
     99 C34        -4.7880   -3.1360    4.5870 c3        1 MOL     -0.257717
    100 H41        -4.3920   -2.6430    0.9130 hn        1 MOL      0.096727
    101 H42        -3.2890   -4.5540    2.9300 h1        1 MOL      0.091860
    102 H43        -2.8370   -2.3430    4.1960 hc        1 MOL     -0.006182
    103 H44        -4.1770   -0.4510    3.9090 hc        1 MOL      0.073733
    104 H45        -3.1930   -0.7520    2.4000 hc        1 MOL      0.073733
    105 H46        -4.8860   -1.0770    2.4050 hc        1 MOL      0.073733
    106 H47        -5.7770   -2.9150    4.1980 hc        1 MOL      0.073733
    107 H48        -4.6620   -4.1730    4.8950 hc        1 MOL      0.073733
    108 H49        -4.8920   -2.5190    5.4770 hc        1 MOL      0.073733
    109 N10        -1.3370   -2.6770    1.1860 n         1 MOL     -0.490034
    110 C35        -0.0410   -2.1350    0.8680 c3        1 MOL      0.385363
    111 C36         0.9030   -3.1750    0.2510 c         1 MOL      0.530752
    112 O17         0.4640   -4.1850   -0.3140 o         1 MOL     -0.489442
    113 C37        -0.1740   -0.8810    0.0420 c3        1 MOL     -0.175235
    114 C38         0.8370    0.1830    0.4250 c         1 MOL      0.658838
    115 N11         0.6780    1.4650    0.1640 n         1 MOL     -0.769142
    116 O18         1.8720   -0.1010    1.0800 o         1 MOL     -0.544746
    117 H50        -2.0870   -2.5080    0.5190 hn        1 MOL      0.223253
    118 H51         0.3720   -1.8960    1.8430 h1        1 MOL      0.019113
    119 H52        -1.1410   -0.4210    0.2540 hc        1 MOL      0.053567
    120 H53        -0.1030   -1.0730   -1.0290 hc        1 MOL      0.053567
    121 H54        -0.1950    1.8250   -0.1810 hn        1 MOL      0.331389
    122 H55         1.2890    2.1510    0.6010 hn        1 MOL      0.331389
    123 N12         2.1840   -2.8150    0.2810 n         1 MOL     -0.638088
    124 C39         3.3070   -3.6100   -0.2940 c3        1 MOL      0.370359
    125 C40         4.5910   -3.4010    0.5570 c         1 MOL      0.550457
    126 O19         4.6820   -2.4480    1.3970 o         1 MOL     -0.577271
    127 C41         3.5670   -3.2850   -1.7650 c3        1 MOL     -0.054047
    128 C42         2.4710   -3.5840   -2.7080 ca        1 MOL      0.111224
    129 C43         1.5720   -2.5470   -2.9570 ca        1 MOL     -0.375121
    130 C44         2.2940   -4.9150   -3.2540 ca        1 MOL     -0.375121
    131 C45         0.5160   -2.8190   -3.8220 ca        1 MOL     -0.025544
    132 C46         1.0630   -5.1470   -4.0220 ca        1 MOL     -0.025544
    133 C47         0.2320   -4.0550   -4.4040 ca        1 MOL      0.145463
    134 O20        -0.7800   -4.3440   -5.2060 oh        1 MOL     -0.467007
    135 H56         2.3460   -1.8530    0.5320 hn        1 MOL      0.249364
    136 H57         3.0890   -4.6770   -0.2190 h1        1 MOL     -0.006237
    137 H58         4.4560   -3.7880   -2.1540 hc        1 MOL      0.043663
    138 H59         3.7940   -2.2180   -1.7990 hc        1 MOL      0.043663
    139 H60         1.7190   -1.5600   -2.5290 ha        1 MOL      0.186329
    140 H61         2.9590   -5.7290   -2.9990 ha        1 MOL      0.186329
    141 H62        -0.1790   -2.0140   -4.0340 ha        1 MOL      0.089511
    142 H63         0.9840   -6.0990   -4.5250 ha        1 MOL      0.089511
    143 H64        -1.2150   -3.5680   -5.5640 ho        1 MOL      0.394810
    144 N13         5.5540   -4.2590    0.3750 n         1 MOL     -0.574988
    145 C48         6.8440   -4.2930    1.1200 c3        1 MOL      0.304151
    146 C49         8.0270   -4.2910    0.1850 c         1 MOL      0.510652
    147 O21         8.6370   -5.3200   -0.1610 o         1 MOL     -0.559894
    148 C50         6.7310   -5.5590    2.0230 c3        1 MOL      0.066324
    149 C51         7.7460   -5.4130    3.0890 c3        1 MOL     -0.178121
    150 C52         7.7070   -6.6440    4.0400 c         1 MOL      0.723384
    151 O22         6.6200   -7.1360    4.3890 o         1 MOL     -0.674810
    152 O23         8.8330   -7.0510    4.4150 o         1 MOL     -0.674810
    153 H65         5.2790   -5.1120   -0.0990 hn        1 MOL      0.253504
    154 H66         6.9020   -3.4320    1.7810 h1        1 MOL      0.031940
    155 H67         6.9500   -6.4880    1.4970 hc        1 MOL     -0.008580
    156 H68         5.7370   -5.6160    2.4600 hc        1 MOL     -0.008580
    157 H69         7.6920   -4.5220    3.7170 hc        1 MOL      0.019937
    158 H70         8.7140   -5.4020    2.5940 hc        1 MOL      0.019937
    159 N14         8.4500   -3.1610   -0.3300 n         1 MOL     -0.563195
    160 C53         7.9470   -1.7990   -0.1810 c3        1 MOL      0.372352
    161 C54         8.3220   -1.1720    1.1450 c         1 MOL      0.416286
    162 O24         9.3290   -1.6060    1.7790 o         1 MOL     -0.571354
    163 C55         8.4250   -1.0100   -1.4490 c3        1 MOL     -0.047289
    164 C56         7.8800    0.4560   -1.3720 c3        1 MOL     -0.362063
    165 C57         8.2050    1.2810   -2.6570 c         1 MOL      0.915015
    166 O25         8.2220    0.6840   -3.7820 o         1 MOL     -0.741915
    167 O26         8.4180    2.4910   -2.6170 o         1 MOL     -0.741915
    168 H71         9.3090   -3.2250   -0.8570 hn        1 MOL      0.302407
    169 H72         6.8610   -1.8600   -0.0930 h1        1 MOL     -0.150688
    170 H73         8.0860   -1.5570   -2.3270 hc        1 MOL      0.021772
    171 H74         9.5030   -0.8890   -1.5500 hc        1 MOL      0.021772
    172 H75         8.2760    1.0150   -0.5220 hc        1 MOL      0.039235
    173 H76         6.8080    0.3930   -1.1860 hc        1 MOL      0.039235
    174 N15         7.5960   -0.1790    1.5970 n         1 MOL     -0.146838
    175 C58         7.5640    0.4770    2.9630 c3        1 MOL     -0.313326
    176 H77         6.6860    0.1320    3.5100 h1        1 MOL      0.127072
    177 H78         8.4630    0.2090    3.5170 h1        1 MOL      0.127072
    178 H79         7.5160    1.5590    2.8460 h1        1 MOL      0.127072
    179 H80         6.7950    0.0600    1.0350 hn        1 MOL      0.256786
    180 Ca1         5.2580    5.6830   -2.4100 Ca        1 MOL      1.583379
    181 O27         5.2320    3.6660   -4.2620 oh        1 MOL     -0.893264
    182 H81         5.9150    3.0940   -4.6100 ho        1 MOL      0.419012
    183 H82         4.5980    3.0710   -3.8540 ho        1 MOL      0.419012
    184 O28         7.5050    4.7340   -1.5540 oh        1 MOL     -0.893264
    185 H83         8.2470    5.2190   -1.1870 ho        1 MOL      0.419012
    186 H84         7.9060    3.9320   -1.9210 ho        1 MOL      0.419012
    187 O29         5.6280    6.6790   -4.7010 oh        1 MOL     -0.893264
    188 H85         5.4660    6.3560   -5.5860 ho        1 MOL      0.419012
    189 H86         5.8190    7.6130   -4.8110 ho        1 MOL      0.419012
    190 O30         3.4430    7.9260   -2.9000 oh        1 MOL     -0.893264
    191 H87         3.2460    8.2220   -3.7880 ho        1 MOL      0.419012
    192 H88         2.6380    7.5060   -2.5940 ho        1 MOL      0.419012
    193 O31         4.7730    3.4990   -0.9420 oh        1 MOL     -0.893264
    194 H89         4.7040    3.0450   -0.1060 ho        1 MOL      0.419012
    195 H90         4.0070    3.1990   -1.4380 ho        1 MOL      0.419012
@<TRIPOS>BOND
     1    1    2 1   
     2    1    4 1   
     3    1    5 1   
     4    1    6 1   
     5    2    3 2   
     6    2    7 1   
     7    7    8 1   
     8    7   15 1   
     9    8    9 1   
    10    8   11 1   
    11    8   16 1   
    12    9   10 2   
    13    9   19 1   
    14   11   12 1   
    15   11   17 1   
    16   11   18 1   
    17   12   13 1   
    18   12   14 1   
    19   19   20 1   
    20   19   27 1   
    21   20   21 1   
    22   20   23 1   
    23   20   28 1   
    24   21   22 2   
    25   21   38 1   
    26   23   24 1   
    27   23   25 1   
    28   23   29 1   
    29   24   26 1   
    30   24   30 1   
    31   24   31 1   
    32   25   32 1   
    33   25   33 1   
    34   25   34 1   
    35   26   35 1   
    36   26   36 1   
    37   26   37 1   
    38   38   39 1   
    39   38   46 1   
    40   39   40 1   
    41   39   42 1   
    42   39   47 1   
    43   40   41 2   
    44   40   50 1   
    45   42   43 1   
    46   42   48 1   
    47   42   49 1   
    48   43   44 1   
    49   43   45 1   
    50   50   51 1   
    51   50   54 1   
    52   51   52 1   
    53   51   55 1   
    54   51   56 1   
    55   52   53 2   
    56   52   57 1   
    57   57   58 1   
    58   57   65 1   
    59   58   59 1   
    60   58   61 1   
    61   58   66 1   
    62   59   60 2   
    63   59   69 1   
    64   61   62 1   
    65   61   67 1   
    66   61   68 1   
    67   62   63 1   
    68   62   64 1   
    69   69   70 1   
    70   69   73 1   
    71   70   71 1   
    72   70   74 1   
    73   70   75 1   
    74   71   72 2   
    75   71   76 1   
    76   76   77 1   
    77   76   85 1   
    78   77   78 1   
    79   77   80 1   
    80   77   86 1   
    81   78   79 2   
    82   78   93 1   
    83   80   81 1   
    84   80   87 1   
    85   80   88 1   
    86   81   82 1   
    87   81   89 1   
    88   81   90 1   
    89   82   83 1   
    90   82   84 2   
    91   83   91 1   
    92   83   92 1   
    93   93   94 1   
    94   93  100 1   
    95   94   95 1   
    96   94   97 1   
    97   94  101 1   
    98   95   96 2   
    99   95  109 1   
   100   97   98 1   
   101   97   99 1   
   102   97  102 1   
   103   98  103 1   
   104   98  104 1   
   105   98  105 1   
   106   99  106 1   
   107   99  107 1   
   108   99  108 1   
   109  109  110 1   
   110  109  117 1   
   111  110  111 1   
   112  110  113 1   
   113  110  118 1   
   114  111  112 2   
   115  111  123 1   
   116  113  114 1   
   117  113  119 1   
   118  113  120 1   
   119  114  115 1   
   120  114  116 2   
   121  115  121 1   
   122  115  122 1   
   123  123  124 1   
   124  123  135 1   
   125  124  125 1   
   126  124  127 1   
   127  124  136 1   
   128  125  126 2   
   129  125  144 1   
   130  127  128 1   
   131  127  137 1   
   132  127  138 1   
   133  128  129 ar  
   134  128  130 ar  
   135  129  131 ar  
   136  129  139 1   
   137  130  132 ar  
   138  130  140 1   
   139  131  133 ar  
   140  131  141 1   
   141  132  133 ar  
   142  132  142 1   
   143  133  134 1   
   144  134  143 1   
   145  144  145 1   
   146  144  153 1   
   147  145  146 1   
   148  145  148 1   
   149  145  154 1   
   150  146  147 2   
   151  146  159 1   
   152  148  149 1   
   153  148  155 1   
   154  148  156 1   
   155  149  150 1   
   156  149  157 1   
   157  149  158 1   
   158  150  151 1   
   159  150  152 1   
   160  159  160 1   
   161  159  168 1   
   162  160  161 1   
   163  160  163 1   
   164  160  169 1   
   165  161  162 2   
   166  161  174 1   
   167  163  164 1   
   168  163  170 1   
   169  163  171 1   
   170  164  165 1   
   171  164  172 1   
   172  164  173 1   
   173  165  166 1   
   174  165  167 1   
   175  174  175 1   
   176  174  179 1   
   177  175  176 1   
   178  175  177 1   
   179  175  178 1   
   180  181  182 1   
   181  181  183 1   
   182  184  185 1   
   183  184  186 1   
   184  187  188 1   
   185  187  189 1   
   186  190  191 1   
   187  190  192 1   
   188  193  194 1   
   189  193  195 1   
@<TRIPOS>SUBSTRUCTURE
     1 MOL         1 TEMP              0 ****  ****    0 ROOT
