@<TRIPOS>MOLECULE
MOL
  195   189     1     0     0
SMALL
resp


@<TRIPOS>ATOM
      1 C1          1.1580    4.2850    3.7580 c3        1 MOL     -0.338559
      2 C2          0.3310    4.3750    2.4390 c         1 MOL      0.580158
      3 O1         -0.6830    3.6500    2.2850 o         1 MOL     -0.497813
      4 H1          0.9370    3.3450    4.2610 hc        1 MOL      0.089053
      5 H2          2.2210    4.3310    3.5240 hc        1 MOL      0.089053
      6 H3          0.8920    5.1170    4.4100 hc        1 MOL      0.089053
      7 N1          0.6730    5.3670    1.5480 n         1 MOL     -0.390885
      8 C3          0.2150    5.5100    0.1560 c3        1 MOL     -0.152181
      9 C4         -1.2320    5.6190   -0.1560 c         1 MOL      0.707392
     10 O2         -1.6770    5.5320   -1.3060 o         1 MOL     -0.531642
     11 C5          1.0290    4.5980   -0.7540 c3        1 MOL     -0.048430
     12 C6          2.5260    4.8490   -0.7350 c         1 MOL      0.658654
     13 O3          3.2670    4.1550    0.0230 o         1 MOL     -0.695149
     14 O4          3.0150    5.8250   -1.3320 o         1 MOL     -0.695149
     15 H4          1.5730    5.7640    1.7540 hn        1 MOL      0.218899
     16 H5          0.6840    6.4770   -0.0220 h1        1 MOL      0.110314
     17 H6          0.7560    4.7780   -1.7920 hc        1 MOL      0.032663
     18 H7          0.8380    3.5570   -0.4630 hc        1 MOL      0.032663
     19 N2         -2.0610    5.9180    0.8370 n         1 MOL     -0.603476
     20 C7         -3.5680    5.9280    0.8720 c3        1 MOL     -0.071721
     21 C8         -4.1490    6.9280   -0.1540 c         1 MOL      0.757976
     22 O5         -3.6270    7.9750   -0.4230 o         1 MOL     -0.585674
     23 C9         -4.1820    6.1860    2.2990 c3        1 MOL      0.272348
     24 C10        -4.0960    7.6720    2.8160 c3        1 MOL     -0.061631
     25 C11        -3.6750    5.2420    3.3520 c3        1 MOL     -0.324207
     26 C12        -5.2980    8.1590    3.6540 c3        1 MOL     -0.266161
     27 H8         -1.5980    5.8480    1.7320 hn        1 MOL      0.244566
     28 H9         -3.8070    4.9000    0.5770 h1        1 MOL      0.112240
     29 H10        -5.2390    5.9790    2.0970 hc        1 MOL     -0.001852
     30 H11        -4.0510    8.3140    1.9360 hc        1 MOL      0.029534
     31 H12        -3.1940    7.7990    3.4090 hc        1 MOL      0.029534
     32 H13        -4.2930    5.3560    4.2440 hc        1 MOL      0.080442
     33 H14        -3.8370    4.2200    3.0030 hc        1 MOL      0.080442
     34 H15        -2.6690    5.4980    3.6610 hc        1 MOL      0.080442
     35 H16        -6.2730    8.0260    3.1870 hc        1 MOL      0.060676
     36 H17        -5.3060    7.7510    4.6570 hc        1 MOL      0.060676
     37 H18        -5.3310    9.2480    3.6970 hc        1 MOL      0.060676
     38 N3         -5.2420    6.5860   -0.8790 n         1 MOL     -0.804363
     39 C13        -5.8990    5.1860   -0.8620 c3        1 MOL      0.432782
     40 C14        -5.2300    4.2860   -1.9010 c         1 MOL      0.512351
     41 O6         -4.9910    4.6260   -3.1220 o         1 MOL     -0.546015
     42 C15        -7.3940    5.4640   -1.0140 c3        1 MOL     -0.456786
     43 C16        -8.1280    4.1640   -0.8610 c         1 MOL      0.765053
     44 O7         -7.6330    3.2090   -0.2190 o         1 MOL     -0.731680
     45 O8         -9.2730    4.0500   -1.4160 o         1 MOL     -0.731680
     46 H19        -5.5280    7.2870   -1.5450 hn        1 MOL      0.373233
     47 H20        -5.7980    4.6640    0.0850 h1        1 MOL     -0.063421
     48 H21        -7.5670    6.0300   -1.9260 hc        1 MOL      0.101798
     49 H22        -7.7170    5.8880   -0.0650 hc        1 MOL      0.101798
     50 N4         -4.9150    3.0370   -1.4900 n         1 MOL     -0.375758
     51 C17        -4.2240    2.0570   -2.2940 c3        1 MOL     -0.141035
     52 C18        -5.1510    0.9360   -2.7700 c         1 MOL      0.690877
     53 O9         -6.3400    1.1270   -3.0060 o         1 MOL     -0.518675
     54 H23        -5.1520    2.7840   -0.5410 hn        1 MOL      0.278840
     55 H24        -3.4390    1.5770   -1.7090 h1        1 MOL      0.082910
     56 H25        -3.7720    2.5110   -3.1730 h1        1 MOL      0.082910
     57 N5         -4.5770   -0.2890   -3.0170 n         1 MOL     -0.597267
     58 C19        -5.2270   -1.4550   -3.5960 c3        1 MOL      0.148902
     59 C20        -6.1250   -2.2280   -2.5530 c         1 MOL      0.343540
     60 O10        -6.7910   -3.2190   -2.8650 o         1 MOL     -0.510875
     61 C21        -4.2700   -2.4780   -4.0710 c3        1 MOL     -0.207397
     62 C22        -3.1780   -2.8720   -3.0460 c         1 MOL      0.692996
     63 O11        -2.0100   -2.4810   -3.2400 o         1 MOL     -0.664982
     64 O12        -3.4280   -3.4100   -1.9220 o         1 MOL     -0.664982
     65 H26        -3.5750   -0.2970   -2.8840 hn        1 MOL      0.294826
     66 H27        -5.8670   -1.1660   -4.4270 h1        1 MOL      0.077546
     67 H28        -3.6290   -1.9420   -4.7570 hc        1 MOL      0.031690
     68 H29        -4.7130   -3.3760   -4.5020 hc        1 MOL      0.031690
     69 N6         -6.2020   -1.7920   -1.2810 n         1 MOL     -0.191388
     70 C23        -7.0440   -2.4170   -0.2120 c3        1 MOL     -0.382536
     71 C24        -6.6020   -3.7430    0.4530 c         1 MOL      0.506358
     72 O13        -7.2140   -4.1220    1.4390 o         1 MOL     -0.559409
     73 H30        -5.9060   -0.8310   -1.1540 hn        1 MOL      0.237470
     74 H31        -7.9900   -2.7310   -0.6550 h1        1 MOL      0.175925
     75 H32        -7.1310   -1.6460    0.5460 h1        1 MOL      0.175925
     76 N7         -5.5440   -4.4440   -0.0310 n         1 MOL     -0.039616
     77 C25        -4.8790   -5.5850    0.5220 c3        1 MOL     -0.041807
     78 C26        -4.5450   -5.4940    2.0640 c         1 MOL      0.565355
     79 O14        -4.2630   -6.4610    2.7610 o         1 MOL     -0.522822
     80 C27        -5.5970   -6.8660    0.0270 c3        1 MOL     -0.003358
     81 C28        -5.4680   -6.9960   -1.4900 c3        1 MOL     -0.111498
     82 C29        -5.4330   -8.4360   -2.0350 c         1 MOL      0.602166
     83 N8         -6.2000   -8.7900   -3.0410 n         1 MOL     -0.777879
     84 O15        -4.6950   -9.2790   -1.5260 o         1 MOL     -0.542388
     85 H33        -5.1250   -4.0520   -0.8640 hn        1 MOL      0.042425
     86 H34        -3.8600   -5.6620    0.1430 h1        1 MOL      0.124742
     87 H35        -6.6110   -6.8760    0.4070 hc        1 MOL     -0.001208
     88 H36        -4.9900   -7.6970    0.4000 hc        1 MOL     -0.001208
     89 H37        -4.5750   -6.4510   -1.8100 hc        1 MOL      0.053596
     90 H38        -6.2540   -6.4270   -1.9900 hc        1 MOL      0.053596
     91 H39        -6.8980   -8.1200   -3.3470 hn        1 MOL      0.348828
     92 H40        -6.1410   -9.6890   -3.4900 hn        1 MOL      0.348828
     93 N9         -4.2620   -4.2360    2.5120 n         1 MOL     -0.489384
     94 C30        -3.8270   -3.8770    3.9010 c3        1 MOL      0.024780
     95 C31        -2.4270   -3.2140    4.0130 c         1 MOL      0.579128
     96 O16        -1.8410   -3.2900    5.0290 o         1 MOL     -0.587346
     97 C32        -4.9080   -3.0170    4.5970 c3        1 MOL      0.180333
     98 C33        -5.2630   -1.6860    4.0060 c3        1 MOL     -0.209249
     99 C34        -6.2310   -3.7040    4.7670 c3        1 MOL     -0.209249
    100 H41        -4.2710   -3.4130    1.9330 hn        1 MOL      0.255087
    101 H42        -3.7400   -4.7560    4.5380 h1        1 MOL      0.072462
    102 H43        -4.6670   -2.8450    5.6380 hc        1 MOL     -0.019277
    103 H44        -5.6740   -1.8510    3.0060 hc        1 MOL      0.046441
    104 H45        -6.0000   -1.1330    4.5970 hc        1 MOL      0.046441
    105 H46        -4.4100   -1.0140    3.9220 hc        1 MOL      0.046441
    106 H47        -6.7500   -3.8500    3.8180 hc        1 MOL      0.046441
    107 H48        -6.1650   -4.6730    5.2760 hc        1 MOL      0.046441
    108 H49        -6.7900   -3.0650    5.4650 hc        1 MOL      0.046441
    109 N10        -2.0150   -2.5670    2.9580 n         1 MOL     -0.410532
    110 C35        -0.6750   -1.9680    2.7970 c3        1 MOL      0.264943
    111 C36         0.1460   -2.6840    1.6770 c         1 MOL      0.437952
    112 O17        -0.4470   -3.2580    0.7420 o         1 MOL     -0.493926
    113 C37        -0.9150   -0.4010    2.5740 c3        1 MOL     -0.269463
    114 C38         0.3840    0.2450    2.1010 c         1 MOL      0.541150
    115 N11         0.6200    0.3510    0.7950 n         1 MOL     -0.533532
    116 O18         1.1840    0.6090    2.9020 o         1 MOL     -0.544195
    117 H50        -2.5660   -2.5950    2.1180 hn        1 MOL      0.214081
    118 H51        -0.1670   -2.0820    3.7620 h1        1 MOL      0.047975
    119 H52        -1.3710    0.1030    3.4310 hc        1 MOL      0.090692
    120 H53        -1.5990   -0.2420    1.7390 hc        1 MOL      0.090692
    121 H54        -0.1090    0.3040    0.0970 hn        1 MOL      0.298759
    122 H55         1.5550    0.5710    0.4710 hn        1 MOL      0.298759
    123 N12         1.5040   -2.5050    1.5830 n         1 MOL     -0.533636
    124 C39         2.3740   -3.0210    0.4760 c3        1 MOL      0.312876
    125 C40         3.8660   -3.1730    0.8730 c         1 MOL      0.493043
    126 O19         4.2740   -2.6790    1.9060 o         1 MOL     -0.555264
    127 C41         2.3300   -2.0110   -0.6760 c3        1 MOL     -0.216227
    128 C42         2.7560   -2.5350   -2.0730 ca        1 MOL     -0.005221
    129 C43         3.9350   -2.0760   -2.7480 ca        1 MOL     -0.100323
    130 C44         1.9770   -3.5480   -2.6930 ca        1 MOL     -0.100323
    131 C45         4.3000   -2.5350   -4.0610 ca        1 MOL     -0.287745
    132 C46         2.3590   -4.0740   -3.9570 ca        1 MOL     -0.287745
    133 C47         3.5020   -3.5660   -4.6390 ca        1 MOL      0.344503
    134 O20         3.7710   -3.9340   -5.9430 oh        1 MOL     -0.490284
    135 H56         1.9730   -2.0850    2.3630 hn        1 MOL      0.254904
    136 H57         1.9440   -3.9870    0.2300 h1        1 MOL      0.061447
    137 H58         2.8760   -1.0990   -0.4690 hc        1 MOL      0.079477
    138 H59         1.3020   -1.6530   -0.7630 hc        1 MOL      0.079477
    139 H60         4.6260   -1.3760   -2.2810 ha        1 MOL      0.153743
    140 H61         1.0390   -3.8130   -2.2230 ha        1 MOL      0.153743
    141 H62         5.2130   -2.1720   -4.5130 ha        1 MOL      0.159148
    142 H63         1.8340   -4.9120   -4.3760 ha        1 MOL      0.159148
    143 H64         4.5530   -3.4710   -6.2400 ho        1 MOL      0.339586
    144 N13         4.6950   -3.8080    0.0300 n         1 MOL     -0.677771
    145 C48         6.1970   -3.9450    0.3480 c3        1 MOL      0.312415
    146 C49         7.1130   -3.0100   -0.4820 c         1 MOL      0.445807
    147 O21         7.6180   -3.4090   -1.5530 o         1 MOL     -0.564089
    148 C50         6.6530   -5.3890    0.1930 c3        1 MOL      0.321750
    149 C51         7.9800   -5.6850    1.0570 c3        1 MOL     -0.394345
    150 C52         8.6340   -7.1000    0.7670 c         1 MOL      0.737082
    151 O22         9.5150   -7.6830    1.4720 o         1 MOL     -0.707728
    152 O23         8.1900   -7.7370   -0.2060 o         1 MOL     -0.707728
    153 H65         4.3660   -4.1860   -0.8470 hn        1 MOL      0.302354
    154 H66         6.2390   -3.7240    1.4100 h1        1 MOL      0.039664
    155 H67         6.7120   -5.6140   -0.8710 hc        1 MOL     -0.057722
    156 H68         5.8520   -6.0380    0.5480 hc        1 MOL     -0.057722
    157 H69         7.7790   -5.6280    2.1220 hc        1 MOL      0.056236
    158 H70         8.7570   -4.9220    0.9250 hc        1 MOL      0.056236
    159 N14         7.4650   -1.7770   -0.1140 n         1 MOL     -0.623330
    160 C53         6.7930   -0.9800    0.8840 c3        1 MOL      0.044873
    161 C54         7.4140   -1.2110    2.3700 c         1 MOL      0.451192
    162 O24         8.4960   -1.7340    2.4820 o         1 MOL     -0.486596
    163 C55         7.0750    0.4760    0.4470 c3        1 MOL     -0.080898
    164 C56         6.6920    0.8010   -1.0500 c3        1 MOL     -0.111599
    165 C57         6.4710    2.2760   -1.3200 c         1 MOL      0.767392
    166 O25         7.4390    3.0600   -1.1320 o         1 MOL     -0.737269
    167 O26         5.3860    2.6580   -1.7330 o         1 MOL     -0.737269
    168 H71         8.1960   -1.3480   -0.6580 hn        1 MOL      0.422164
    169 H72         5.7280   -1.1930    0.8110 h1        1 MOL      0.169470
    170 H73         8.1260    0.7400    0.5580 hc        1 MOL      0.009755
    171 H74         6.4340    1.0980    1.0650 hc        1 MOL      0.009755
    172 H75         5.7820    0.2040   -1.1600 hc        1 MOL      0.000766
    173 H76         7.5410    0.4590   -1.6470 hc        1 MOL      0.000766
    174 N15         6.6420   -0.8570    3.3820 n         1 MOL     -0.319354
    175 C58         6.9720   -0.9070    4.8450 c3        1 MOL     -0.196966
    176 H77         6.6600   -1.8670    5.2550 h1        1 MOL      0.099107
    177 H78         8.0470   -0.7880    4.9790 h1        1 MOL      0.099107
    178 H79         6.4500   -0.1040    5.3630 h1        1 MOL      0.099107
    179 H80         5.6860   -0.5830    3.2060 hn        1 MOL      0.264150
    180 Ca1         5.5950    5.2190   -0.9930 Ca        1 MOL      1.700833
    181 O27         5.7100    7.6390   -2.0050 oh        1 MOL     -0.828604
    182 H81         6.6010    7.7750   -2.3310 ho        1 MOL      0.396797
    183 H82         5.1820    8.2480   -2.5110 ho        1 MOL      0.396797
    184 O28         5.6700    3.9740    1.3960 oh        1 MOL     -0.828604
    185 H83         4.7780    3.6380    1.4410 ho        1 MOL      0.396797
    186 H84         5.9170    4.1340    2.3100 ho        1 MOL      0.396797
    187 O29         8.0040    5.4240   -2.3030 oh        1 MOL     -0.828604
    188 H85         8.7760    5.8830   -2.6490 ho        1 MOL      0.396797
    189 H86         8.2880    4.5090   -2.2290 ho        1 MOL      0.396797
    190 O30         5.5780    5.0310   -3.8600 oh        1 MOL     -0.828604
    191 H87         5.3560    4.3080   -4.4520 ho        1 MOL      0.396797
    192 H88         6.1270    5.6050   -4.3900 ho        1 MOL      0.396797
    193 O31         7.5470    6.3650    0.3990 oh        1 MOL     -0.828604
    194 H89         7.4120    6.8100    1.2410 ho        1 MOL      0.396797
    195 H90         8.4540    6.0600    0.4400 ho        1 MOL      0.396797
@<TRIPOS>BOND
     1    1    2 1   
     2    1    4 1   
     3    1    5 1   
     4    1    6 1   
     5    2    3 2   
     6    2    7 1   
     7    7    8 1   
     8    7   15 1   
     9    8    9 1   
    10    8   11 1   
    11    8   16 1   
    12    9   10 2   
    13    9   19 1   
    14   11   12 1   
    15   11   17 1   
    16   11   18 1   
    17   12   13 1   
    18   12   14 1   
    19   19   20 1   
    20   19   27 1   
    21   20   21 1   
    22   20   23 1   
    23   20   28 1   
    24   21   22 2   
    25   21   38 1   
    26   23   24 1   
    27   23   25 1   
    28   23   29 1   
    29   24   26 1   
    30   24   30 1   
    31   24   31 1   
    32   25   32 1   
    33   25   33 1   
    34   25   34 1   
    35   26   35 1   
    36   26   36 1   
    37   26   37 1   
    38   38   39 1   
    39   38   46 1   
    40   39   40 1   
    41   39   42 1   
    42   39   47 1   
    43   40   41 2   
    44   40   50 1   
    45   42   43 1   
    46   42   48 1   
    47   42   49 1   
    48   43   44 1   
    49   43   45 1   
    50   50   51 1   
    51   50   54 1   
    52   51   52 1   
    53   51   55 1   
    54   51   56 1   
    55   52   53 2   
    56   52   57 1   
    57   57   58 1   
    58   57   65 1   
    59   58   59 1   
    60   58   61 1   
    61   58   66 1   
    62   59   60 2   
    63   59   69 1   
    64   61   62 1   
    65   61   67 1   
    66   61   68 1   
    67   62   63 1   
    68   62   64 1   
    69   69   70 1   
    70   69   73 1   
    71   70   71 1   
    72   70   74 1   
    73   70   75 1   
    74   71   72 2   
    75   71   76 1   
    76   76   77 1   
    77   76   85 1   
    78   77   78 1   
    79   77   80 1   
    80   77   86 1   
    81   78   79 2   
    82   78   93 1   
    83   80   81 1   
    84   80   87 1   
    85   80   88 1   
    86   81   82 1   
    87   81   89 1   
    88   81   90 1   
    89   82   83 1   
    90   82   84 2   
    91   83   91 1   
    92   83   92 1   
    93   93   94 1   
    94   93  100 1   
    95   94   95 1   
    96   94   97 1   
    97   94  101 1   
    98   95   96 2   
    99   95  109 1   
   100   97   98 1   
   101   97   99 1   
   102   97  102 1   
   103   98  103 1   
   104   98  104 1   
   105   98  105 1   
   106   99  106 1   
   107   99  107 1   
   108   99  108 1   
   109  109  110 1   
   110  109  117 1   
   111  110  111 1   
   112  110  113 1   
   113  110  118 1   
   114  111  112 2   
   115  111  123 1   
   116  113  114 1   
   117  113  119 1   
   118  113  120 1   
   119  114  115 1   
   120  114  116 2   
   121  115  121 1   
   122  115  122 1   
   123  123  124 1   
   124  123  135 1   
   125  124  125 1   
   126  124  127 1   
   127  124  136 1   
   128  125  126 2   
   129  125  144 1   
   130  127  128 1   
   131  127  137 1   
   132  127  138 1   
   133  128  129 ar  
   134  128  130 ar  
   135  129  131 ar  
   136  129  139 1   
   137  130  132 ar  
   138  130  140 1   
   139  131  133 ar  
   140  131  141 1   
   141  132  133 ar  
   142  132  142 1   
   143  133  134 1   
   144  134  143 1   
   145  144  145 1   
   146  144  153 1   
   147  145  146 1   
   148  145  148 1   
   149  145  154 1   
   150  146  147 2   
   151  146  159 1   
   152  148  149 1   
   153  148  155 1   
   154  148  156 1   
   155  149  150 1   
   156  149  157 1   
   157  149  158 1   
   158  150  151 1   
   159  150  152 1   
   160  159  160 1   
   161  159  168 1   
   162  160  161 1   
   163  160  163 1   
   164  160  169 1   
   165  161  162 2   
   166  161  174 1   
   167  163  164 1   
   168  163  170 1   
   169  163  171 1   
   170  164  165 1   
   171  164  172 1   
   172  164  173 1   
   173  165  166 1   
   174  165  167 1   
   175  174  175 1   
   176  174  179 1   
   177  175  176 1   
   178  175  177 1   
   179  175  178 1   
   180  181  182 1   
   181  181  183 1   
   182  184  185 1   
   183  184  186 1   
   184  187  188 1   
   185  187  189 1   
   186  190  191 1   
   187  190  192 1   
   188  193  194 1   
   189  193  195 1   
@<TRIPOS>SUBSTRUCTURE
     1 MOL         1 TEMP              0 ****  ****    0 ROOT
