@<TRIPOS>MOLECULE
MOL
  185   180     1     0     0
SMALL
resp


@<TRIPOS>ATOM
      1 C1         -5.6680    0.8910   -3.7510 c3        1 MOL     -0.531565
      2 C2         -6.5190    1.0140   -2.4820 c         1 MOL      0.603972
      3 O1         -6.0330    1.0990   -1.3510 o         1 MOL     -0.508791
      4 H1         -4.8090    1.5580   -3.6780 hc        1 MOL      0.144561
      5 H2         -5.3210   -0.1360   -3.8590 hc        1 MOL      0.144561
      6 H3         -6.2670    1.1650   -4.6200 hc        1 MOL      0.144561
      7 N1         -7.8670    0.9800   -2.6700 n         1 MOL     -0.572877
      8 C3         -8.9250    1.1340   -1.6370 c3        1 MOL      0.549265
      9 C4         -8.7840    0.3070   -0.3480 c         1 MOL     -0.025144
     10 O2         -9.0590    0.6590    0.8290 o         1 MOL     -0.382178
     11 C5         -8.9290    2.6350   -1.2440 c3        1 MOL     -0.488350
     12 C6        -10.2410    3.0090   -0.6840 c         1 MOL      0.770175
     13 O3        -10.5570    4.1690   -0.4010 o         1 MOL     -0.669364
     14 O4        -11.1890    2.1920   -0.4890 o         1 MOL     -0.669364
     15 H4         -8.1940    0.9320   -3.6260 hn        1 MOL      0.293843
     16 H5         -9.9370    0.9240   -1.9920 h1        1 MOL     -0.093538
     17 H6         -8.6360    3.2310   -2.1130 hc        1 MOL      0.141673
     18 H7         -8.1130    2.7260   -0.5350 hc        1 MOL      0.141673
     19 N2         -8.1550   -0.8830   -0.4690 n         1 MOL     -0.036806
     20 C7         -8.0770   -2.0060    0.5500 c3        1 MOL     -0.062688
     21 C8         -6.6190   -2.5700    0.7860 c         1 MOL      0.618911
     22 O5         -6.3290   -3.7310    1.0960 o         1 MOL     -0.588616
     23 C9         -9.0730   -3.1050    0.1040 c3        1 MOL      0.081673
     24 C10       -10.5750   -2.7140    0.2000 c3        1 MOL      0.374425
     25 C11       -11.5400   -3.8640    0.1060 c3        1 MOL     -0.106894
     26 C12       -12.9320   -3.2100    0.0620 c3        1 MOL     -0.243261
     27 N3        -13.2300   -2.4530   -1.1980 n4        1 MOL     -0.220884
     28 H8         -7.8940   -1.1470   -1.4100 hn        1 MOL      0.098159
     29 H9         -8.4340   -1.6120    1.4930 h1        1 MOL      0.103842
     30 H10        -8.9470   -4.0180    0.6920 hc        1 MOL     -0.044516
     31 H11        -8.8570   -3.4520   -0.9110 hc        1 MOL     -0.044516
     32 H12       -10.7000   -2.2300   -0.7630 hc        1 MOL     -0.073783
     33 H13       -10.8040   -2.2380    1.1510 hc        1 MOL     -0.073783
     34 H14       -11.5240   -4.5260    0.9730 hc        1 MOL      0.052230
     35 H15       -11.4360   -4.4750   -0.7970 hc        1 MOL      0.052230
     36 H16       -13.1330   -2.6180    0.9600 hx        1 MOL      0.174373
     37 H17       -13.7110   -3.9600    0.1970 hx        1 MOL      0.174373
     38 H18       -12.7470   -1.5630   -1.2410 hn        1 MOL      0.259058
     39 H19       -12.7790   -2.8530   -2.0000 hn        1 MOL      0.259058
     40 H20       -14.1840   -2.3330   -1.5310 hn        1 MOL      0.259058
     41 N4         -5.6110   -1.7110    0.6000 n         1 MOL     -0.577792
     42 C13        -4.1410   -1.9880    0.6920 c3        1 MOL      0.038389
     43 C14        -3.6830   -2.3930    2.0840 c         1 MOL      0.611904
     44 O6         -4.0540   -1.7290    3.0630 o         1 MOL     -0.529726
     45 C15        -3.2950   -0.7740    0.2570 c3        1 MOL     -0.298648
     46 C16        -1.8490   -1.2220    0.0960 c         1 MOL      0.874869
     47 O7         -0.8080   -0.6060    0.5180 o         1 MOL     -0.818858
     48 O8         -1.6000   -2.2770   -0.5570 o         1 MOL     -0.818858
     49 H21        -5.9730   -0.8460    0.2340 hn        1 MOL      0.324340
     50 H22        -3.9800   -2.8130   -0.0100 h1        1 MOL      0.086879
     51 H23        -3.2040    0.0580    0.9560 hc        1 MOL      0.141271
     52 H24        -3.5330   -0.4100   -0.7440 hc        1 MOL      0.141271
     53 N5         -2.9190   -3.4830    2.2050 n         1 MOL     -0.257684
     54 C17        -2.2640   -4.0390    3.3790 c3        1 MOL     -0.281682
     55 C18        -1.2210   -3.0940    4.1050 c         1 MOL      0.578176
     56 O9         -1.0210   -3.2450    5.3220 o         1 MOL     -0.555757
     57 H25        -2.7670   -3.9400    1.3170 hn        1 MOL      0.241298
     58 H26        -1.6900   -4.8900    3.0060 h1        1 MOL      0.145206
     59 H27        -3.0390   -4.3350    4.0810 h1        1 MOL      0.145206
     60 N6         -0.6510   -2.1100    3.4350 n         1 MOL     -0.309093
     61 C19         0.2180   -1.0670    4.0220 c3        1 MOL     -0.044504
     62 C20        -0.0660    0.4000    3.7390 c         1 MOL      0.508343
     63 O10         0.8280    1.2280    3.8900 o         1 MOL     -0.531343
     64 C21         1.7750   -1.5190    3.9350 c3        1 MOL     -0.288743
     65 C22         2.3650   -1.4160    2.5770 c         1 MOL      0.848950
     66 N7          3.6290   -0.9760    2.3530 n         1 MOL     -0.923420
     67 O11         1.7730   -1.7550    1.5850 o         1 MOL     -0.687558
     68 H28        -0.7600   -2.0990    2.4230 hn        1 MOL      0.211411
     69 H29         0.0490   -1.0940    5.0970 h1        1 MOL      0.133998
     70 H30         1.9310   -2.5710    4.1860 hc        1 MOL      0.111353
     71 H31         2.3540   -0.9520    4.6650 hc        1 MOL      0.111353
     72 H32         4.2380   -0.6730    3.1090 hn        1 MOL      0.356343
     73 H33         3.9550   -0.9660    1.4040 hn        1 MOL      0.356343
     74 N8         -1.3230    0.7410    3.3630 n         1 MOL     -0.211439
     75 C23        -1.7830    2.1470    3.1970 c3        1 MOL     -0.312847
     76 C24        -1.1520    2.8580    2.0600 c         1 MOL      0.574317
     77 O12        -1.3730    4.1000    2.0140 o         1 MOL     -0.531426
     78 H34        -1.9780    0.0180    3.1170 hn        1 MOL      0.145346
     79 H35        -1.6050    2.6710    4.1370 h1        1 MOL      0.170985
     80 H36        -2.8570    2.2500    3.0100 h1        1 MOL      0.170985
     81 N9         -0.3740    2.2230    1.1270 n         1 MOL     -0.423648
     82 C25         0.2930    2.8710    0.0510 c3        1 MOL      0.275654
     83 C26         1.6470    2.1820   -0.3280 c         1 MOL      0.282172
     84 O13         1.8690    0.9460   -0.1390 o         1 MOL     -0.340993
     85 C27        -0.5910    2.9250   -1.1210 c3        1 MOL      0.094759
     86 C28        -1.6560    3.9460   -1.0630 ca        1 MOL      0.042507
     87 C29        -1.2250    5.2020   -1.4290 ca        1 MOL     -0.253305
     88 C30        -2.9980    3.6730   -0.7820 ca        1 MOL     -0.253305
     89 C31        -2.1930    6.2530   -1.6580 ca        1 MOL     -0.032989
     90 C32        -3.9380    4.6960   -0.9280 ca        1 MOL     -0.032989
     91 C33        -3.5440    5.9130   -1.5320 ca        1 MOL      0.119761
     92 O14        -4.5520    6.8630   -1.7210 oh        1 MOL     -0.493178
     93 H37        -0.2910    1.2100    1.1790 hn        1 MOL      0.219956
     94 H38         0.6090    3.8750    0.3510 h1        1 MOL      0.003141
     95 H39        -1.0730    1.9390   -1.0990 hc        1 MOL     -0.049089
     96 H40        -0.0800    2.9530   -2.0870 hc        1 MOL     -0.049089
     97 H41        -0.1760    5.3890   -1.6240 ha        1 MOL      0.126910
     98 H42        -3.2530    2.6600   -0.4980 ha        1 MOL      0.126910
     99 H43        -1.9030    7.2300   -1.9950 ha        1 MOL      0.103368
    100 H44        -4.9760    4.3810   -0.9320 ha        1 MOL      0.103368
    101 H45        -5.3940    6.5110   -1.4310 ho        1 MOL      0.391862
    102 N10         2.6590    2.9110   -0.8620 n         1 MOL     -0.403938
    103 C34         4.0080    2.3840   -1.1910 c3        1 MOL      0.094596
    104 C35         4.8450    2.0950    0.0430 c         1 MOL      0.285846
    105 O15         5.3180    0.9720    0.2350 o         1 MOL     -0.253440
    106 C36         4.6810    3.3510   -2.2050 c3        1 MOL      0.125612
    107 C37         3.9040    3.7860   -3.5020 c3        1 MOL      0.188443
    108 C38         6.0850    2.8310   -2.6880 c3        1 MOL     -0.490579
    109 C39         3.4890    2.6130   -4.4380 c3        1 MOL     -0.438427
    110 H46         2.5420    3.9020   -0.9470 hn        1 MOL      0.258845
    111 H47         3.8790    1.3950   -1.6370 h1        1 MOL      0.024384
    112 H48         4.8710    4.2700   -1.6510 hc        1 MOL     -0.039310
    113 H49         4.5350    4.4670   -4.0560 hc        1 MOL     -0.020198
    114 H50         3.0210    4.3600   -3.2040 hc        1 MOL     -0.020198
    115 H51         6.2490    3.2670   -3.6720 hc        1 MOL      0.144391
    116 H52         6.7560    3.3230   -1.9810 hc        1 MOL      0.144391
    117 H53         6.1790    1.7470   -2.7360 hc        1 MOL      0.144391
    118 H54         3.0920    3.1330   -5.3100 hc        1 MOL      0.119109
    119 H55         4.3850    2.0370   -4.6720 hc        1 MOL      0.119109
    120 H56         2.7770    1.8920   -4.0250 hc        1 MOL      0.119109
    121 N11         5.0300    3.1240    0.9230 n         1 MOL     -0.239257
    122 C40         5.4810    2.8820    2.3510 c3        1 MOL     -0.234550
    123 C41         6.8630    2.1980    2.3960 c         1 MOL      0.437925
    124 O16         7.1970    1.5440    3.3390 o         1 MOL     -0.470171
    125 C42         5.5560    4.1500    3.2420 c3        1 MOL      0.308588
    126 O17         4.4350    5.0020    3.3340 oh        1 MOL     -0.619883
    127 H57         4.7120    4.0530    0.7030 hn        1 MOL      0.260021
    128 H58         4.7140    2.2090    2.7190 h1        1 MOL      0.151640
    129 H59         6.3810    4.7940    2.9530 h1        1 MOL      0.036958
    130 H60         5.7760    3.7930    4.2510 h1        1 MOL      0.036958
    131 H61         3.7020    4.5420    3.7410 ho        1 MOL      0.413477
    132 N12         7.6910    2.4210    1.3410 n         1 MOL     -0.396683
    133 C43         9.0400    1.8970    1.0900 c3        1 MOL      0.227800
    134 C44         9.0750    0.3550    1.0070 c         1 MOL      0.448812
    135 O18        10.1970   -0.1850    1.0270 o         1 MOL     -0.528681
    136 C45        10.0610    2.5100    2.0830 c3        1 MOL     -0.276681
    137 H62         7.2430    2.9520    0.6080 hn        1 MOL      0.213840
    138 H63         9.3330    2.2670    0.1090 h1        1 MOL      0.048068
    139 H64        11.0470    2.0260    2.0590 hc        1 MOL      0.082476
    140 H65        10.2130    3.5730    1.8730 hc        1 MOL      0.082476
    141 H66         9.6880    2.5830    3.0990 hc        1 MOL      0.082476
    142 N13         7.9040   -0.2540    0.7040 n         1 MOL     -0.415876
    143 C46         7.7930   -1.6800    0.6420 c3        1 MOL      0.535278
    144 C47         7.1490   -2.1220   -0.7510 c         1 MOL      0.183168
    145 O19         6.7230   -1.2840   -1.6000 o         1 MOL     -0.445682
    146 C48         7.0040   -2.2200    1.7720 c3        1 MOL     -0.376631
    147 H67         7.1360    0.3660    0.4640 hn        1 MOL      0.094995
    148 H68         8.7390   -2.2110    0.6790 h1        1 MOL     -0.031398
    149 H69         5.9380   -2.0770    1.5910 hc        1 MOL      0.094957
    150 H70         7.1250   -3.2970    1.8990 hc        1 MOL      0.094957
    151 H71         7.2310   -1.6510    2.6710 hc        1 MOL      0.094957
    152 N14         7.0600   -3.4360   -1.0000 n         1 MOL     -0.288231
    153 C49         6.5550   -4.0680   -2.1990 c3        1 MOL     -0.213354
    154 C50         7.3150   -3.5870   -3.5040 c         1 MOL      0.467622
    155 O20         6.8400   -3.4310   -4.6240 o         1 MOL     -0.515353
    156 C51         4.9880   -4.0030   -2.3660 c3        1 MOL      0.368376
    157 C52         4.2850   -4.6130   -1.1730 c3        1 MOL     -0.006173
    158 C53         2.7870   -4.6780   -1.3250 c         1 MOL      0.696189
    159 O21         2.2600   -5.3750   -2.2090 o         1 MOL     -0.705773
    160 O22         2.1660   -3.9530   -0.5070 o         1 MOL     -0.705773
    161 H72         7.3810   -4.0510   -0.2620 hn        1 MOL      0.274105
    162 H73         6.7970   -5.1230   -2.0770 h1        1 MOL      0.103161
    163 H74         4.7140   -4.6590   -3.1970 hc        1 MOL     -0.074569
    164 H75         4.5650   -3.0260   -2.6050 hc        1 MOL     -0.074569
    165 H76         4.5520   -4.0370   -0.2850 hc        1 MOL     -0.051970
    166 H77         4.7060   -5.6140   -1.0330 hc        1 MOL     -0.051970
    167 N15         8.5550   -3.2190   -3.3210 n         1 MOL     -0.278197
    168 C54         9.3670   -2.4410   -4.3900 c3        1 MOL     -0.116755
    169 H78         9.9880   -1.6920   -3.9000 h1        1 MOL      0.088973
    170 H79        10.0010   -3.1350   -4.9410 h1        1 MOL      0.088973
    171 H80         8.6810   -1.9480   -5.0800 h1        1 MOL      0.088973
    172 H81         8.9790   -3.3330   -2.4100 hn        1 MOL      0.213451
    173 Ca1         1.2120   -1.5050   -0.9330 Ca        1 MOL      1.747342
    174 O23        -0.2140    0.0520   -2.6890 oh        1 MOL     -0.841026
    175 H82        -0.2040    0.9460   -3.0490 ho        1 MOL      0.412182
    176 H83        -0.9940   -0.3470   -3.0670 ho        1 MOL      0.412182
    177 O24         3.8330   -1.2190   -0.5400 oh        1 MOL     -0.841026
    178 H84         4.3880   -1.9890   -0.6270 ho        1 MOL      0.412182
    179 H85         4.4290   -0.4760   -0.5940 ho        1 MOL      0.412182
    180 O25         2.1740   -1.3510   -3.4010 oh        1 MOL     -0.841026
    181 H86         2.2930   -2.1130   -3.9710 ho        1 MOL      0.412182
    182 H87         2.1680   -0.6080   -4.0000 ho        1 MOL      0.412182
    183 O26         0.2210   -3.3270   -2.5070 oh        1 MOL     -0.841026
    184 H88         0.4990   -4.2380   -2.4530 ho        1 MOL      0.412182
    185 H89        -0.6770   -3.3650   -2.8530 ho        1 MOL      0.412182
@<TRIPOS>BOND
     1    1    2 1   
     2    1    4 1   
     3    1    5 1   
     4    1    6 1   
     5    2    3 2   
     6    2    7 1   
     7    7    8 1   
     8    7   15 1   
     9    8    9 1   
    10    8   11 1   
    11    8   16 1   
    12    9   10 2   
    13    9   19 1   
    14   11   12 1   
    15   11   17 1   
    16   11   18 1   
    17   12   13 1   
    18   12   14 1   
    19   19   20 1   
    20   19   28 1   
    21   20   21 1   
    22   20   23 1   
    23   20   29 1   
    24   21   22 2   
    25   21   41 1   
    26   23   24 1   
    27   23   30 1   
    28   23   31 1   
    29   24   25 1   
    30   24   32 1   
    31   24   33 1   
    32   25   26 1   
    33   25   34 1   
    34   25   35 1   
    35   26   27 1   
    36   26   36 1   
    37   26   37 1   
    38   27   38 1   
    39   27   39 1   
    40   27   40 1   
    41   41   42 1   
    42   41   49 1   
    43   42   43 1   
    44   42   45 1   
    45   42   50 1   
    46   43   44 2   
    47   43   53 1   
    48   45   46 1   
    49   45   51 1   
    50   45   52 1   
    51   46   47 1   
    52   46   48 1   
    53   53   54 1   
    54   53   57 1   
    55   54   55 1   
    56   54   58 1   
    57   54   59 1   
    58   55   56 2   
    59   55   60 1   
    60   60   61 1   
    61   60   68 1   
    62   61   62 1   
    63   61   64 1   
    64   61   69 1   
    65   62   63 2   
    66   62   74 1   
    67   64   65 1   
    68   64   70 1   
    69   64   71 1   
    70   65   66 1   
    71   65   67 2   
    72   66   72 1   
    73   66   73 1   
    74   74   75 1   
    75   74   78 1   
    76   75   76 1   
    77   75   79 1   
    78   75   80 1   
    79   76   77 2   
    80   76   81 1   
    81   81   82 1   
    82   81   93 1   
    83   82   83 1   
    84   82   85 1   
    85   82   94 1   
    86   83   84 2   
    87   83  102 1   
    88   85   86 1   
    89   85   95 1   
    90   85   96 1   
    91   86   87 ar  
    92   86   88 ar  
    93   87   89 ar  
    94   87   97 1   
    95   88   90 ar  
    96   88   98 1   
    97   89   91 ar  
    98   89   99 1   
    99   90   91 ar  
   100   90  100 1   
   101   91   92 1   
   102   92  101 1   
   103  102  103 1   
   104  102  110 1   
   105  103  104 1   
   106  103  106 1   
   107  103  111 1   
   108  104  105 2   
   109  104  121 1   
   110  106  107 1   
   111  106  108 1   
   112  106  112 1   
   113  107  109 1   
   114  107  113 1   
   115  107  114 1   
   116  108  115 1   
   117  108  116 1   
   118  108  117 1   
   119  109  118 1   
   120  109  119 1   
   121  109  120 1   
   122  121  122 1   
   123  121  127 1   
   124  122  123 1   
   125  122  125 1   
   126  122  128 1   
   127  123  124 2   
   128  123  132 1   
   129  125  126 1   
   130  125  129 1   
   131  125  130 1   
   132  126  131 1   
   133  132  133 1   
   134  132  137 1   
   135  133  134 1   
   136  133  136 1   
   137  133  138 1   
   138  134  135 2   
   139  134  142 1   
   140  136  139 1   
   141  136  140 1   
   142  136  141 1   
   143  142  143 1   
   144  142  147 1   
   145  143  144 1   
   146  143  146 1   
   147  143  148 1   
   148  144  145 2   
   149  144  152 1   
   150  146  149 1   
   151  146  150 1   
   152  146  151 1   
   153  152  153 1   
   154  152  161 1   
   155  153  154 1   
   156  153  156 1   
   157  153  162 1   
   158  154  155 2   
   159  154  167 1   
   160  156  157 1   
   161  156  163 1   
   162  156  164 1   
   163  157  158 1   
   164  157  165 1   
   165  157  166 1   
   166  158  159 1   
   167  158  160 1   
   168  167  168 1   
   169  167  172 1   
   170  168  169 1   
   171  168  170 1   
   172  168  171 1   
   173  174  175 1   
   174  174  176 1   
   175  177  178 1   
   176  177  179 1   
   177  180  181 1   
   178  180  182 1   
   179  183  184 1   
   180  183  185 1   
@<TRIPOS>SUBSTRUCTURE
     1 MOL         1 TEMP              0 ****  ****    0 ROOT
