@<TRIPOS>MOLECULE
MOL
  181   177     1     0     0
SMALL
resp


@<TRIPOS>ATOM
      1 C1          0.9240    6.8180   -1.6730 c3        1 MOL     -0.370276
      2 C2          2.3390    6.4240   -1.4530 c         1 MOL      0.762725
      3 O1          2.9810    6.9270   -0.5220 o         1 MOL     -0.610243
      4 H1          0.4130    6.8880   -0.7130 hc        1 MOL      0.091572
      5 H2          0.8900    7.7870   -2.1730 hc        1 MOL      0.091572
      6 H3          0.4310    6.0710   -2.2940 hc        1 MOL      0.091572
      7 N1          3.0110    5.6560   -2.3360 n         1 MOL     -0.682243
      8 C3          4.2920    5.0280   -2.0220 c3        1 MOL      0.281772
      9 C4          4.2080    4.1480   -0.7510 c         1 MOL      0.537102
     10 O2          3.4290    3.1970   -0.7260 o         1 MOL     -0.551183
     11 C5          4.6320    4.1430   -3.2640 c3        1 MOL     -0.306739
     12 C6          6.0920    3.5820   -3.0500 c         1 MOL      0.722272
     13 O3          6.4090    2.4560   -3.5490 o         1 MOL     -0.727380
     14 O4          6.9720    4.3010   -2.5130 o         1 MOL     -0.727380
     15 H4          2.4860    5.4110   -3.1660 hn        1 MOL      0.323105
     16 H5          5.1030    5.7570   -2.0240 h1        1 MOL      0.026065
     17 H6          4.6390    4.6700   -4.2140 hc        1 MOL      0.047274
     18 H7          3.9000    3.3390   -3.3840 hc        1 MOL      0.047274
     19 N2          4.8750    4.5080    0.3090 n         1 MOL     -0.550334
     20 C7          4.9260    3.8000    1.5800 c3        1 MOL      0.655180
     21 C8          3.5280    3.6080    2.1840 c         1 MOL      0.404859
     22 O5          2.6810    4.4360    1.9250 o         1 MOL     -0.506975
     23 C9          5.8870    4.4460    2.5150 c3        1 MOL     -0.466709
     24 H8          5.4760    5.3210    0.2920 hn        1 MOL      0.286442
     25 H9          5.2800    2.7870    1.3880 h1        1 MOL     -0.106338
     26 H10         5.8070    3.9480    3.4830 hc        1 MOL      0.105220
     27 H11         6.8830    4.2450    2.1230 hc        1 MOL      0.105220
     28 H12         5.6240    5.5030    2.5760 hc        1 MOL      0.105220
     29 N3          3.2310    2.6270    3.0930 n         1 MOL     -0.552370
     30 C10         4.0950    1.5270    3.5020 c3        1 MOL      0.171339
     31 C11         4.4700    0.4990    2.4840 c         1 MOL      0.458258
     32 O6          3.6690    0.1460    1.6210 o         1 MOL     -0.441969
     33 C12         3.4890    0.8920    4.7930 c3        1 MOL     -0.381548
     34 C13         2.0050    0.4540    4.6450 c         1 MOL      0.888453
     35 O7          1.3880    0.4370    3.5670 o         1 MOL     -0.727693
     36 O8          1.3680    0.1000    5.6910 o         1 MOL     -0.727693
     37 H13         2.3050    2.7400    3.4870 hn        1 MOL      0.340539
     38 H14         5.0300    1.9710    3.8440 h1        1 MOL      0.027377
     39 H15         3.4040    1.5740    5.6350 hc        1 MOL      0.063915
     40 H16         4.0210   -0.0320    5.0310 hc        1 MOL      0.063915
     41 N4          5.6770    0.0270    2.5730 n         1 MOL     -0.445965
     42 C14         6.2070   -0.9910    1.6170 c3        1 MOL      0.135031
     43 C15         6.8200   -0.3660    0.3610 c         1 MOL      0.495606
     44 O9          7.1720    0.8190    0.2420 o         1 MOL     -0.467425
     45 H17         6.3230    0.3660    3.2720 hn        1 MOL      0.272350
     46 H18         5.3070   -1.5590    1.3650 h1        1 MOL     -0.000393
     47 H19         6.8560   -1.7320    2.0690 h1        1 MOL     -0.000393
     48 N5          7.1300   -1.1670   -0.6820 n         1 MOL     -0.465696
     49 C16         6.9380   -2.5750   -0.7220 c3        1 MOL     -0.003734
     50 C17         5.8590   -2.9740   -1.7260 c         1 MOL      0.571799
     51 O10         5.6900   -4.2030   -1.9040 o         1 MOL     -0.554435
     52 C18         8.3490   -3.2020   -0.9620 c3        1 MOL     -0.181577
     53 C19         9.1540   -3.0620    0.2720 c         1 MOL      0.687625
     54 N6          8.7720   -3.8130    1.2970 n         1 MOL     -0.801936
     55 O11        10.0080   -2.2380    0.3610 o         1 MOL     -0.533781
     56 H20         7.6000   -0.7690   -1.4800 hn        1 MOL      0.342005
     57 H21         6.6210   -3.0810    0.1910 h1        1 MOL      0.055877
     58 H22         8.8470   -2.7080   -1.7980 hc        1 MOL      0.058324
     59 H23         8.3030   -4.2750   -1.1630 hc        1 MOL      0.058324
     60 H24         7.9530   -4.3930    1.2080 hn        1 MOL      0.364327
     61 H25         9.2790   -3.7600    2.1630 hn        1 MOL      0.364327
     62 N7          5.0990   -2.0670   -2.3410 n         1 MOL     -0.240475
     63 C20         4.2630   -2.4790   -3.4410 c3        1 MOL     -0.456995
     64 C21         3.0650   -3.3880   -3.0740 c         1 MOL      0.519522
     65 O12         2.4670   -3.9120   -4.0180 o         1 MOL     -0.523631
     66 H26         5.2540   -1.0790   -2.2040 hn        1 MOL      0.239466
     67 H27         4.9560   -3.0860   -4.0200 h1        1 MOL      0.217900
     68 H28         3.7840   -1.6360   -3.9330 h1        1 MOL      0.217900
     69 N8          2.6110   -3.5110   -1.8250 n         1 MOL     -0.341245
     70 C22         1.4930   -4.3890   -1.4630 c3        1 MOL      0.120156
     71 C23         0.3120   -3.5870   -1.0370 c         1 MOL      0.362955
     72 O13         0.3890   -2.5470   -0.4020 o         1 MOL     -0.490313
     73 C24         1.7700   -5.5170   -0.4530 c3        1 MOL      0.457457
     74 C25         2.9830   -6.4070   -0.8350 c3        1 MOL     -0.524978
     75 O14         2.1000   -4.9720    0.8060 oh        1 MOL     -0.646634
     76 H29         3.2720   -3.2920   -1.0870 hn        1 MOL      0.210810
     77 H30         1.2040   -4.9700   -2.3450 h1        1 MOL      0.015991
     78 H31         0.8690   -6.1310   -0.3320 h1        1 MOL     -0.031219
     79 H32         1.2560   -4.7370    1.1920 ho        1 MOL      0.426411
     80 H33         3.8930   -6.0410   -0.3620 hc        1 MOL      0.137903
     81 H34         2.8780   -7.4140   -0.4280 hc        1 MOL      0.137903
     82 H35         3.1600   -6.4730   -1.9120 hc        1 MOL      0.137903
     83 N9         -0.8600   -4.0970   -1.3900 n         1 MOL     -0.404123
     84 C26        -2.1620   -3.4810   -1.3290 c3        1 MOL     -0.104209
     85 C27        -2.7160   -3.8360    0.0670 c         1 MOL      0.503602
     86 O15        -2.7030   -5.0210    0.5080 o         1 MOL     -0.576131
     87 C28        -3.0260   -4.1150   -2.3760 c3        1 MOL      0.166413
     88 C29        -4.5710   -4.2070   -2.2580 c3        1 MOL     -0.051211
     89 C30        -2.7120   -3.3160   -3.6730 c3        1 MOL     -0.573141
     90 C31        -5.3060   -2.8790   -2.3490 c3        1 MOL      0.092117
     91 H36        -0.7030   -4.9040   -1.9890 hn        1 MOL      0.262759
     92 H37        -2.1300   -2.4110   -1.5500 h1        1 MOL      0.335399
     93 H38        -2.6860   -5.1550   -2.4220 hc        1 MOL      0.000896
     94 H39        -4.8040   -4.7800   -1.3590 hc        1 MOL      0.017356
     95 H40        -4.9860   -4.7190   -3.1210 hc        1 MOL      0.017356
     96 H41        -3.4080   -3.5950   -4.4700 hc        1 MOL      0.144334
     97 H42        -2.6940   -2.2290   -3.5580 hc        1 MOL      0.144334
     98 H43        -1.6920   -3.5550   -3.9810 hc        1 MOL      0.144334
     99 H44        -4.8970   -2.1200   -1.6740 hc        1 MOL     -0.047854
    100 H45        -5.3100   -2.4010   -3.3260 hc        1 MOL     -0.047854
    101 H46        -6.3170   -3.0460   -1.9820 hc        1 MOL     -0.047854
    102 N10        -3.2440   -2.8090    0.7240 n         1 MOL     -0.236101
    103 C32        -3.9310   -2.9650    1.9870 c3        1 MOL     -0.039044
    104 C33        -5.1560   -2.0350    2.1870 c         1 MOL      0.451464
    105 O16        -5.9080   -2.1610    3.1550 o         1 MOL     -0.532988
    106 C34        -3.0110   -2.8990    3.1860 c3        1 MOL      0.081173
    107 C35        -2.0190   -1.8080    3.0640 c         1 MOL      0.595047
    108 O17        -1.1220   -1.8250    2.1630 o         1 MOL     -0.682838
    109 O18        -2.1650   -0.7280    3.7220 o         1 MOL     -0.682838
    110 H47        -3.2150   -1.9270    0.2330 hn        1 MOL      0.093430
    111 H48        -4.3840   -3.9510    2.0410 h1        1 MOL      0.078036
    112 H49        -2.4390   -3.8240    3.2420 hc        1 MOL     -0.013292
    113 H50        -3.5680   -2.8990    4.1260 hc        1 MOL     -0.013292
    114 N11        -5.2970   -1.0020    1.2990 n         1 MOL     -0.477824
    115 C36        -6.5170   -0.1750    1.1960 c3        1 MOL      0.229429
    116 C37        -6.1320    1.1840    0.5770 c         1 MOL      0.250199
    117 O19        -6.6480    1.5320   -0.4470 o         1 MOL     -0.443727
    118 C38        -7.5230   -1.0100    0.3670 c3        1 MOL     -0.273465
    119 C39        -8.9280   -0.5890    0.5140 ca        1 MOL      0.194610
    120 C40        -9.4620   -0.0620    1.7170 ca        1 MOL     -0.230766
    121 C41        -9.7850   -0.7520   -0.5980 ca        1 MOL     -0.230766
    122 C42       -10.8490    0.1830    1.7540 ca        1 MOL     -0.034534
    123 C43       -11.1710   -0.3710   -0.5540 ca        1 MOL     -0.034534
    124 C44       -11.7390   -0.0580    0.7030 ca        1 MOL     -0.229802
    125 H51        -4.5610   -0.8130    0.6280 hn        1 MOL      0.367181
    126 H52        -6.8280   -0.0060    2.2230 h1        1 MOL      0.075071
    127 H53        -7.3800   -2.0400    0.6910 hc        1 MOL      0.110609
    128 H54        -7.1930   -1.0430   -0.6660 hc        1 MOL      0.110609
    129 H55        -8.9320   -0.1050    2.6600 ha        1 MOL      0.128042
    130 H56        -9.3800   -0.9300   -1.5760 ha        1 MOL      0.128042
    131 H57       -11.1610    0.6280    2.6820 ha        1 MOL      0.084552
    132 H58       -11.7350   -0.4730   -1.4650 ha        1 MOL      0.084552
    133 H59       -12.7930    0.1070    0.8300 ha        1 MOL      0.119600
    134 N12        -5.2680    2.0360    1.1970 n         1 MOL     -0.117438
    135 C45        -4.9030    3.3740    0.7520 c3        1 MOL      0.002004
    136 C46        -4.5670    3.4830   -0.7000 c         1 MOL      0.187205
    137 O20        -4.8200    4.5520   -1.3010 o         1 MOL     -0.474406
    138 C47        -3.7250    3.7630    1.6490 c3        1 MOL     -0.135747
    139 C48        -4.0050    3.1130    3.0140 c3        1 MOL     -0.018180
    140 C49        -4.7400    1.8520    2.5820 c3        1 MOL     -0.006310
    141 H60        -5.6550    4.1030    1.0540 h1        1 MOL      0.072683
    142 H61        -2.7430    3.5340    1.2250 hc        1 MOL      0.085531
    143 H62        -3.7010    4.8380    1.8270 hc        1 MOL      0.085531
    144 H63        -3.1170    3.0170    3.6370 hc        1 MOL      0.038942
    145 H64        -4.7660    3.6150    3.6120 hc        1 MOL      0.038942
    146 H65        -4.0930    0.9850    2.6920 h1        1 MOL      0.046969
    147 H66        -5.5900    1.6280    3.2190 h1        1 MOL      0.046969
    148 N13        -3.9990    2.4740   -1.3170 n         1 MOL     -0.033066
    149 C50        -3.7020    2.4660   -2.6780 c3        1 MOL     -0.077796
    150 C51        -4.9450    2.6620   -3.5470 c         1 MOL      0.398379
    151 O21        -5.1020    3.6190   -4.2580 o         1 MOL     -0.504775
    152 C52        -3.1130    1.1310   -2.9770 c3        1 MOL      0.173241
    153 C53        -1.8570    0.6340   -2.2520 c3        1 MOL      0.050016
    154 C54        -2.1690    0.1000   -0.8490 c         1 MOL      0.399283
    155 O22        -1.1990    0.0930   -0.0460 o         1 MOL     -0.588462
    156 O23        -3.3230   -0.3040   -0.5970 o         1 MOL     -0.588462
    157 H67        -3.7440    1.6890   -0.7440 hn        1 MOL      0.261661
    158 H68        -2.9990    3.2470   -2.9760 h1        1 MOL      0.065224
    159 H69        -2.8350    1.2180   -4.0230 hc        1 MOL     -0.077533
    160 H70        -3.9330    0.4250   -2.8730 hc        1 MOL     -0.077533
    161 H71        -1.1440    1.4380   -2.1050 hc        1 MOL     -0.048532
    162 H72        -1.4960   -0.2890   -2.7190 hc        1 MOL     -0.048532
    163 N14        -5.9410    1.7750   -3.2830 n         1 MOL     -0.161437
    164 C55        -7.2120    1.7110   -4.0110 c3        1 MOL     -0.180571
    165 H73        -8.0360    1.8680   -3.3150 h1        1 MOL      0.070873
    166 H74        -7.2320    2.4840   -4.7780 h1        1 MOL      0.070873
    167 H75        -7.3150    0.7320   -4.4790 h1        1 MOL      0.070873
    168 H76        -5.8570    1.0940   -2.5420 hn        1 MOL      0.248393
    169 Ca1         0.9780   -0.3670    1.2620 Ca        1 MOL      1.752557
    170 O24         2.5530   -2.4440    2.4460 oh        1 MOL     -0.965796
    171 H77         2.9260   -2.5860    3.3170 ho        1 MOL      0.459405
    172 H78         3.1700   -2.8520    1.8460 ho        1 MOL      0.459405
    173 O25        -1.4750    1.3240    2.1640 oh        1 MOL     -0.965796
    174 H79        -1.5910    0.7200    2.8980 ho        1 MOL      0.459405
    175 H80        -1.7420    0.8260    1.3920 ho        1 MOL      0.459405
    176 O26         2.5110   -0.8470   -1.0130 oh        1 MOL     -0.965796
    177 H81         3.2020   -0.4620   -1.5600 ho        1 MOL      0.459405
    178 H82         2.2110   -1.6160   -1.5090 ho        1 MOL      0.459405
    179 O27         1.2350    2.0130   -0.1240 oh        1 MOL     -0.965796
    180 H83         2.0650    2.4830   -0.1740 ho        1 MOL      0.459405
    181 H84         0.6360    2.5350   -0.6450 ho        1 MOL      0.459405
@<TRIPOS>BOND
     1    1    2 1   
     2    1    4 1   
     3    1    5 1   
     4    1    6 1   
     5    2    3 2   
     6    2    7 1   
     7    7    8 1   
     8    7   15 1   
     9    8    9 1   
    10    8   11 1   
    11    8   16 1   
    12    9   10 2   
    13    9   19 1   
    14   11   12 1   
    15   11   17 1   
    16   11   18 1   
    17   12   13 1   
    18   12   14 1   
    19   19   20 1   
    20   19   24 1   
    21   20   21 1   
    22   20   23 1   
    23   20   25 1   
    24   21   22 2   
    25   21   29 1   
    26   23   26 1   
    27   23   27 1   
    28   23   28 1   
    29   29   30 1   
    30   29   37 1   
    31   30   31 1   
    32   30   33 1   
    33   30   38 1   
    34   31   32 2   
    35   31   41 1   
    36   33   34 1   
    37   33   39 1   
    38   33   40 1   
    39   34   35 1   
    40   34   36 1   
    41   41   42 1   
    42   41   45 1   
    43   42   43 1   
    44   42   46 1   
    45   42   47 1   
    46   43   44 2   
    47   43   48 1   
    48   48   49 1   
    49   48   56 1   
    50   49   50 1   
    51   49   52 1   
    52   49   57 1   
    53   50   51 2   
    54   50   62 1   
    55   52   53 1   
    56   52   58 1   
    57   52   59 1   
    58   53   54 1   
    59   53   55 2   
    60   54   60 1   
    61   54   61 1   
    62   62   63 1   
    63   62   66 1   
    64   63   64 1   
    65   63   67 1   
    66   63   68 1   
    67   64   65 2   
    68   64   69 1   
    69   69   70 1   
    70   69   76 1   
    71   70   71 1   
    72   70   73 1   
    73   70   77 1   
    74   71   72 2   
    75   71   83 1   
    76   73   74 1   
    77   73   75 1   
    78   73   78 1   
    79   74   80 1   
    80   74   81 1   
    81   74   82 1   
    82   75   79 1   
    83   83   84 1   
    84   83   91 1   
    85   84   85 1   
    86   84   87 1   
    87   84   92 1   
    88   85   86 2   
    89   85  102 1   
    90   87   88 1   
    91   87   89 1   
    92   87   93 1   
    93   88   90 1   
    94   88   94 1   
    95   88   95 1   
    96   89   96 1   
    97   89   97 1   
    98   89   98 1   
    99   90   99 1   
   100   90  100 1   
   101   90  101 1   
   102  102  103 1   
   103  102  110 1   
   104  103  104 1   
   105  103  106 1   
   106  103  111 1   
   107  104  105 2   
   108  104  114 1   
   109  106  107 1   
   110  106  112 1   
   111  106  113 1   
   112  107  108 1   
   113  107  109 1   
   114  114  115 1   
   115  114  125 1   
   116  115  116 1   
   117  115  118 1   
   118  115  126 1   
   119  116  117 2   
   120  116  134 1   
   121  118  119 1   
   122  118  127 1   
   123  118  128 1   
   124  119  120 ar  
   125  119  121 ar  
   126  120  122 ar  
   127  120  129 1   
   128  121  123 ar  
   129  121  130 1   
   130  122  124 ar  
   131  122  131 1   
   132  123  124 ar  
   133  123  132 1   
   134  124  133 1   
   135  134  135 1   
   136  134  140 1   
   137  135  136 1   
   138  135  138 1   
   139  135  141 1   
   140  136  137 2   
   141  136  148 1   
   142  138  139 1   
   143  138  142 1   
   144  138  143 1   
   145  139  140 1   
   146  139  144 1   
   147  139  145 1   
   148  140  146 1   
   149  140  147 1   
   150  148  149 1   
   151  148  157 1   
   152  149  150 1   
   153  149  152 1   
   154  149  158 1   
   155  150  151 2   
   156  150  163 1   
   157  152  153 1   
   158  152  159 1   
   159  152  160 1   
   160  153  154 1   
   161  153  161 1   
   162  153  162 1   
   163  154  155 1   
   164  154  156 1   
   165  163  164 1   
   166  163  168 1   
   167  164  165 1   
   168  164  166 1   
   169  164  167 1   
   170  170  171 1   
   171  170  172 1   
   172  173  174 1   
   173  173  175 1   
   174  176  177 1   
   175  176  178 1   
   176  179  180 1   
   177  179  181 1   
@<TRIPOS>SUBSTRUCTURE
     1 MOL         1 TEMP              0 ****  ****    0 ROOT
