@<TRIPOS>MOLECULE
MOL
  175   173     1     0     0
SMALL
resp


@<TRIPOS>ATOM
      1 C1         -6.8870    7.9080    1.2920 c3        1 MOL     -0.302831
      2 C2         -7.8220    6.9410    0.4880 c         1 MOL      0.659125
      3 O1         -7.9690    7.1580   -0.7070 o         1 MOL     -0.589236
      4 H1         -6.3200    8.5260    0.5970 hc        1 MOL      0.069216
      5 H2         -7.4910    8.5470    1.9350 hc        1 MOL      0.069216
      6 H3         -6.1980    7.3240    1.9030 hc        1 MOL      0.069216
      7 N1         -8.4360    5.9160    1.0860 n         1 MOL     -0.450791
      8 C3         -9.3810    5.0200    0.4720 c3        1 MOL      0.319755
      9 C4         -8.7600    3.6480   -0.0930 c         1 MOL      0.478728
     10 O2         -9.4560    2.7430   -0.5340 o         1 MOL     -0.505112
     11 C5        -10.4250    4.6890    1.5140 c3        1 MOL     -0.437099
     12 C6        -11.7290    4.1250    1.0160 c         1 MOL      0.749559
     13 O3        -12.4070    3.1410    1.4750 o         1 MOL     -0.721176
     14 O4        -12.2430    4.7810    0.0580 o         1 MOL     -0.721176
     15 H4         -8.2270    5.8300    2.0760 hn        1 MOL      0.238171
     16 H5         -9.8170    5.5810   -0.3570 h1        1 MOL      0.024322
     17 H6        -10.6570    5.6420    1.9900 hc        1 MOL      0.067442
     18 H7         -9.8660    3.9490    2.0930 hc        1 MOL      0.067442
     19 N2         -7.4480    3.5480   -0.2010 n         1 MOL     -0.564690
     20 C7         -6.6720    2.5960   -0.9980 c3        1 MOL      0.604980
     21 C8         -5.3610    2.2070   -0.2550 c         1 MOL      0.266234
     22 O5         -4.8380    3.0210    0.5320 o         1 MOL     -0.514825
     23 C9         -6.2560    3.2020   -2.3520 c3        1 MOL     -0.477472
     24 H8         -7.0010    4.2840    0.3260 hn        1 MOL      0.215512
     25 H9         -7.3100    1.7320   -1.1970 h1        1 MOL     -0.078070
     26 H10        -7.1230    3.5110   -2.9490 hc        1 MOL      0.121198
     27 H11        -5.5830    4.0110   -2.0890 hc        1 MOL      0.121198
     28 H12        -5.7460    2.4700   -2.9850 hc        1 MOL      0.121198
     29 N3         -4.7320    1.0660   -0.5150 n         1 MOL     -0.215765
     30 C10        -5.0900    0.0160   -1.4760 c3        1 MOL     -0.080370
     31 C11        -5.3650   -1.2220   -0.6860 c         1 MOL      0.389524
     32 O6         -4.6890   -1.5380    0.3350 o         1 MOL     -0.504172
     33 C12        -3.9670   -0.2350   -2.5560 c3        1 MOL     -0.195340
     34 C13        -2.5540   -0.3660   -2.0100 c         1 MOL      0.815714
     35 O7         -1.7550   -1.0920   -2.6820 o         1 MOL     -0.750903
     36 O8         -2.2310    0.2680   -0.9810 o         1 MOL     -0.750903
     37 H13        -3.8220    0.8810   -0.1160 hn        1 MOL      0.273721
     38 H14        -5.9570    0.2750   -2.0850 h1        1 MOL      0.103662
     39 H15        -4.0320    0.6620   -3.1860 hc        1 MOL      0.037455
     40 H16        -4.2200   -1.1720   -3.0560 hc        1 MOL      0.037455
     41 N4         -6.3720   -2.0500   -1.1250 n         1 MOL     -0.369972
     42 C14        -6.7800   -3.3600   -0.5130 c3        1 MOL      0.124253
     43 C15        -6.6540   -4.7150   -1.3090 c         1 MOL      0.501888
     44 O9         -7.7180   -5.1820   -1.6520 o         1 MOL     -0.521168
     45 H17        -6.8790   -1.7590   -1.9600 hn        1 MOL      0.274025
     46 H18        -7.8130   -3.3060   -0.1940 h1        1 MOL      0.033222
     47 H19        -6.2380   -3.4920    0.4210 h1        1 MOL      0.033222
     48 N5         -5.4200   -5.1950   -1.6550 n         1 MOL     -0.523929
     49 C16        -4.1410   -4.7150   -1.1750 c3        1 MOL     -0.026639
     50 C17        -3.7390   -5.3430    0.2040 c         1 MOL      0.560181
     51 O10        -3.6820   -6.5680    0.3500 o         1 MOL     -0.528503
     52 C18        -3.0490   -5.0400   -2.3330 c3        1 MOL     -0.032068
     53 C19        -1.7790   -4.2060   -2.1480 c         1 MOL      0.521472
     54 N6         -0.8760   -4.3660   -3.0330 n         1 MOL     -0.557406
     55 O11        -1.5280   -3.4260   -1.1990 o         1 MOL     -0.650822
     56 H20        -5.3340   -6.1040   -2.0900 hn        1 MOL      0.316615
     57 H21        -4.2240   -3.6310   -1.2030 h1        1 MOL      0.146230
     58 H22        -3.4510   -4.9100   -3.3390 hc        1 MOL      0.040618
     59 H23        -2.7790   -6.0990   -2.3030 hc        1 MOL      0.040618
     60 H24        -1.0520   -5.1980   -3.5900 hn        1 MOL      0.296651
     61 H25        -0.0250   -3.8200   -3.0140 hn        1 MOL      0.296651
     62 N7         -3.4520   -4.4310    1.2100 n         1 MOL     -0.297628
     63 C20        -3.1110   -4.8830    2.5610 c3        1 MOL     -0.241966
     64 C21        -1.6390   -5.3650    2.7850 c         1 MOL      0.573805
     65 O12        -1.4340   -5.7760    3.9070 o         1 MOL     -0.571564
     66 H26        -3.6090   -3.4380    1.0990 hn        1 MOL      0.275327
     67 H27        -3.8110   -5.6960    2.7320 h1        1 MOL      0.114068
     68 H28        -3.3170   -4.0690    3.2480 h1        1 MOL      0.114068
     69 N8         -0.7510   -5.1550    1.8140 n         1 MOL     -0.137789
     70 C22         0.7210   -5.4460    1.8970 c3        1 MOL     -0.218647
     71 C23         1.3990   -4.0880    1.7590 c         1 MOL      0.510379
     72 O13         0.9280   -3.2200    0.9860 o         1 MOL     -0.569258
     73 C24         1.2070   -6.3340    0.7470 c3        1 MOL      0.357420
     74 C25         0.6340   -7.7310    1.0680 c3        1 MOL     -0.414570
     75 O14         0.5310   -5.9750   -0.5280 oh        1 MOL     -0.584617
     76 H29        -1.1120   -4.7350    0.9690 hn        1 MOL      0.162960
     77 H30         1.0940   -5.9260    2.8020 h1        1 MOL      0.113829
     78 H31         2.2710   -6.3780    0.5320 h1        1 MOL      0.067676
     79 H32         1.0600   -5.3540   -1.0340 ho        1 MOL      0.340911
     80 H33         0.9980   -8.4420    0.3250 hc        1 MOL      0.103751
     81 H34         1.0840   -8.1070    1.9930 hc        1 MOL      0.103751
     82 H35        -0.4460   -7.7150    0.9600 hc        1 MOL      0.103751
     83 N9          2.4360   -3.7650    2.5320 n         1 MOL     -0.418398
     84 C26         3.4120   -2.6870    2.3110 c3        1 MOL      0.045601
     85 C27         4.2640   -3.1830    1.1490 c         1 MOL      0.329739
     86 O15         4.9490   -4.2340    1.1430 o         1 MOL     -0.535234
     87 C28         4.1720   -2.4180    3.6380 c3        1 MOL      0.212863
     88 C29         5.3290   -1.4380    3.5430 c3        1 MOL     -0.026849
     89 C30         3.1500   -2.0200    4.7770 c3        1 MOL     -0.377189
     90 C31         5.0110   -0.1980    2.8090 c3        1 MOL     -0.190902
     91 H36         2.7320   -4.5660    3.0870 hn        1 MOL      0.269315
     92 H37         2.8770   -1.7670    2.0880 h1        1 MOL      0.113012
     93 H38         4.6350   -3.3740    3.8760 hc        1 MOL     -0.032209
     94 H39         6.1790   -1.9240    3.0700 hc        1 MOL      0.009073
     95 H40         5.7000   -1.2650    4.5580 hc        1 MOL      0.009073
     96 H41         2.7750   -1.0180    4.5650 hc        1 MOL      0.094896
     97 H42         2.3540   -2.7510    4.8970 hc        1 MOL      0.094896
     98 H43         3.7280   -1.9930    5.7070 hc        1 MOL      0.094896
     99 H44         4.7830   -0.4200    1.7700 hc        1 MOL      0.044891
    100 H45         4.2180    0.4300    3.2360 hc        1 MOL      0.044891
    101 H46         5.8830    0.4450    2.8490 hc        1 MOL      0.044891
    102 N10         4.2880   -2.3450    0.0740 n         1 MOL     -0.127455
    103 C32         5.0130   -2.5790   -1.1480 c3        1 MOL     -0.094984
    104 C33         5.9770   -1.3560   -1.5480 c         1 MOL      0.556550
    105 O16         6.7420   -1.5410   -2.4800 o         1 MOL     -0.511917
    106 C34         3.9770   -2.7190   -2.2750 c3        1 MOL     -0.300133
    107 C35         2.7470   -3.6290   -1.9530 c         1 MOL      0.720981
    108 O17         2.9310   -4.8440   -1.8490 o         1 MOL     -0.649060
    109 O18         1.6250   -3.1140   -1.8980 o         1 MOL     -0.649060
    110 H47         3.6240   -1.5820    0.0620 hn        1 MOL      0.271313
    111 H48         5.5760   -3.5080   -1.1030 h1        1 MOL      0.145240
    112 H49         4.5280   -3.2490   -3.0500 hc        1 MOL      0.072258
    113 H50         3.5570   -1.7860   -2.6430 hc        1 MOL      0.072258
    114 N11         6.0110   -0.2230   -0.7430 n         1 MOL     -0.603047
    115 C36         6.8430    0.9300   -1.0010 c3        1 MOL      0.447775
    116 C37         6.2550    2.3610   -0.5790 c         1 MOL      0.340929
    117 O19         5.7680    2.6000    0.5100 o         1 MOL     -0.499437
    118 C38         8.2290    0.6660   -0.3830 c3        1 MOL     -0.194427
    119 C39         9.2710    1.7970   -0.3340 ca        1 MOL      0.007064
    120 C40         9.4930    2.5350    0.8590 ca        1 MOL     -0.083875
    121 C41         9.9780    2.1820   -1.4810 ca        1 MOL     -0.083875
    122 C42        10.3690    3.5600    0.9680 ca        1 MOL     -0.160076
    123 C43        10.8720    3.2860   -1.4520 ca        1 MOL     -0.160076
    124 C44        10.9910    4.0190   -0.2110 ca        1 MOL     -0.102144
    125 H51         5.3030   -0.0670   -0.0430 hn        1 MOL      0.284523
    126 H52         7.0510    1.0400   -2.0650 h1        1 MOL     -0.073202
    127 H53         8.7120   -0.1310   -0.9460 hc        1 MOL      0.075673
    128 H54         8.0510    0.3130    0.6390 hc        1 MOL      0.075673
    129 H55         8.8650    2.2550    1.6890 ha        1 MOL      0.100029
    130 H56         9.7850    1.7000   -2.4320 ha        1 MOL      0.100029
    131 H57        10.4730    4.0060    1.9500 ha        1 MOL      0.122470
    132 H58        11.3780    3.6580   -2.3350 ha        1 MOL      0.122470
    133 H59        11.5090    4.9570   -0.3110 ha        1 MOL      0.097332
    134 N12         6.2690    3.3780   -1.4860 n         1 MOL     -0.129457
    135 C45         5.9490    4.7920   -1.1970 c3        1 MOL      0.035196
    136 C46         4.6080    5.1360   -0.4140 c         1 MOL      0.374499
    137 O20         4.4620    6.3450   -0.0670 o         1 MOL     -0.507520
    138 C47         6.0500    5.5730   -2.4830 c3        1 MOL     -0.094695
    139 C48         7.1050    4.7500   -3.3530 c3        1 MOL     -0.147590
    140 C49         6.8100    3.3560   -2.8080 c3        1 MOL      0.032097
    141 H60         6.7160    5.0720   -0.4740 h1        1 MOL      0.084087
    142 H61         5.1050    5.6560   -3.0160 hc        1 MOL      0.075122
    143 H62         6.3080    6.6110   -2.2590 hc        1 MOL      0.075122
    144 H63         6.7910    4.8420   -4.3950 hc        1 MOL      0.059378
    145 H64         8.1720    4.9440   -3.2680 hc        1 MOL      0.059378
    146 H65         6.0780    2.8970   -3.4840 h1        1 MOL      0.040801
    147 H66         7.7790    2.8700   -2.7970 h1        1 MOL      0.040801
    148 N13         3.5950    4.2040   -0.1870 n         1 MOL     -0.337497
    149 C50         2.3020    4.4420    0.5170 c3        1 MOL     -0.018468
    150 C51         2.4920    5.2030    1.8910 c         1 MOL      0.495474
    151 O21         1.6490    5.9750    2.3140 o         1 MOL     -0.528505
    152 C52         1.5550    3.0840    0.6020 c3        1 MOL     -0.201454
    153 C53         2.4660    1.9020    1.0900 c3        1 MOL      0.039837
    154 C54         1.7940    0.5890    0.7530 c         1 MOL      0.645784
    155 O22         0.7170    0.2220    1.2990 o         1 MOL     -0.730879
    156 O23         2.2960   -0.1530   -0.1430 o         1 MOL     -0.730879
    157 H67         3.7430    3.2380   -0.4450 hn        1 MOL      0.221748
    158 H68         1.6970    5.1280   -0.0760 h1        1 MOL      0.106290
    159 H69         1.1470    2.8280   -0.3790 hc        1 MOL      0.097405
    160 H70         0.7240    3.2910    1.2690 hc        1 MOL      0.097405
    161 H71         2.5920    2.0480    2.1530 hc        1 MOL     -0.012055
    162 H72         3.4140    1.8010    0.5650 hc        1 MOL     -0.012055
    163 N14         3.6730    5.1330    2.5810 n         1 MOL     -0.119091
    164 C55         4.0100    5.7580    3.8210 c3        1 MOL     -0.262685
    165 H73         3.6600    6.7900    3.8140 h1        1 MOL      0.099729
    166 H74         3.5360    5.2190    4.6420 h1        1 MOL      0.099729
    167 H75         5.0930    5.7430    3.9520 h1        1 MOL      0.099729
    168 H76         4.3600    4.5100    2.1800 hn        1 MOL      0.182821
    169 Ca1         0.0470   -1.3970   -0.5880 Ca        1 MOL      1.733907
    170 O24         0.9070    0.0080   -2.9240 oh        1 MOL     -0.835808
    171 H77         1.1530   -0.3310   -3.7780 ho        1 MOL      0.405037
    172 H78         0.4270    0.8090   -3.1130 ho        1 MOL      0.405037
    173 O25        -1.9790   -1.3000    1.3430 oh        1 MOL     -0.835808
    174 H79        -1.7400   -0.5220    1.8430 ho        1 MOL      0.405037
    175 H80        -2.8880   -1.1600    1.0950 ho        1 MOL      0.405037
@<TRIPOS>BOND
     1    1    2 1   
     2    1    4 1   
     3    1    5 1   
     4    1    6 1   
     5    2    3 2   
     6    2    7 1   
     7    7    8 1   
     8    7   15 1   
     9    8    9 1   
    10    8   11 1   
    11    8   16 1   
    12    9   10 2   
    13    9   19 1   
    14   11   12 1   
    15   11   17 1   
    16   11   18 1   
    17   12   13 1   
    18   12   14 1   
    19   19   20 1   
    20   19   24 1   
    21   20   21 1   
    22   20   23 1   
    23   20   25 1   
    24   21   22 2   
    25   21   29 1   
    26   23   26 1   
    27   23   27 1   
    28   23   28 1   
    29   29   30 1   
    30   29   37 1   
    31   30   31 1   
    32   30   33 1   
    33   30   38 1   
    34   31   32 2   
    35   31   41 1   
    36   33   34 1   
    37   33   39 1   
    38   33   40 1   
    39   34   35 1   
    40   34   36 1   
    41   41   42 1   
    42   41   45 1   
    43   42   43 1   
    44   42   46 1   
    45   42   47 1   
    46   43   44 2   
    47   43   48 1   
    48   48   49 1   
    49   48   56 1   
    50   49   50 1   
    51   49   52 1   
    52   49   57 1   
    53   50   51 2   
    54   50   62 1   
    55   52   53 1   
    56   52   58 1   
    57   52   59 1   
    58   53   54 1   
    59   53   55 2   
    60   54   60 1   
    61   54   61 1   
    62   62   63 1   
    63   62   66 1   
    64   63   64 1   
    65   63   67 1   
    66   63   68 1   
    67   64   65 2   
    68   64   69 1   
    69   69   70 1   
    70   69   76 1   
    71   70   71 1   
    72   70   73 1   
    73   70   77 1   
    74   71   72 2   
    75   71   83 1   
    76   73   74 1   
    77   73   75 1   
    78   73   78 1   
    79   74   80 1   
    80   74   81 1   
    81   74   82 1   
    82   75   79 1   
    83   83   84 1   
    84   83   91 1   
    85   84   85 1   
    86   84   87 1   
    87   84   92 1   
    88   85   86 2   
    89   85  102 1   
    90   87   88 1   
    91   87   89 1   
    92   87   93 1   
    93   88   90 1   
    94   88   94 1   
    95   88   95 1   
    96   89   96 1   
    97   89   97 1   
    98   89   98 1   
    99   90   99 1   
   100   90  100 1   
   101   90  101 1   
   102  102  103 1   
   103  102  110 1   
   104  103  104 1   
   105  103  106 1   
   106  103  111 1   
   107  104  105 2   
   108  104  114 1   
   109  106  107 1   
   110  106  112 1   
   111  106  113 1   
   112  107  108 1   
   113  107  109 1   
   114  114  115 1   
   115  114  125 1   
   116  115  116 1   
   117  115  118 1   
   118  115  126 1   
   119  116  117 2   
   120  116  134 1   
   121  118  119 1   
   122  118  127 1   
   123  118  128 1   
   124  119  120 ar  
   125  119  121 ar  
   126  120  122 ar  
   127  120  129 1   
   128  121  123 ar  
   129  121  130 1   
   130  122  124 ar  
   131  122  131 1   
   132  123  124 ar  
   133  123  132 1   
   134  124  133 1   
   135  134  135 1   
   136  134  140 1   
   137  135  136 1   
   138  135  138 1   
   139  135  141 1   
   140  136  137 2   
   141  136  148 1   
   142  138  139 1   
   143  138  142 1   
   144  138  143 1   
   145  139  140 1   
   146  139  144 1   
   147  139  145 1   
   148  140  146 1   
   149  140  147 1   
   150  148  149 1   
   151  148  157 1   
   152  149  150 1   
   153  149  152 1   
   154  149  158 1   
   155  150  151 2   
   156  150  163 1   
   157  152  153 1   
   158  152  159 1   
   159  152  160 1   
   160  153  154 1   
   161  153  161 1   
   162  153  162 1   
   163  154  155 1   
   164  154  156 1   
   165  163  164 1   
   166  163  168 1   
   167  164  165 1   
   168  164  166 1   
   169  164  167 1   
   170  170  171 1   
   171  170  172 1   
   172  173  174 1   
   173  173  175 1   
@<TRIPOS>SUBSTRUCTURE
     1 MOL         1 TEMP              0 ****  ****    0 ROOT
