@<TRIPOS>MOLECULE
MOL
  182   178     1     0     0
SMALL
resp


@<TRIPOS>ATOM
      1 C1          0.5020   -3.5410    6.3820 c3        1 MOL     -0.391648
      2 C2          0.6410   -3.4830    4.8160 c         1 MOL      0.735122
      3 O1         -0.3940   -3.3680    4.0810 o         1 MOL     -0.655804
      4 H1          1.2270   -4.2490    6.7850 hc        1 MOL      0.121311
      5 H2          0.6900   -2.5520    6.8010 hc        1 MOL      0.121311
      6 H3         -0.5050   -3.8630    6.6460 hc        1 MOL      0.121311
      7 N1          1.7970   -3.4560    4.1920 n         1 MOL     -0.594235
      8 C3          2.0590   -3.0990    2.7930 c3        1 MOL      0.256688
      9 C4          2.3720   -4.3030    1.8620 c         1 MOL      0.383765
     10 O2          2.8560   -5.3610    2.2880 o         1 MOL     -0.511259
     11 C5          3.1580   -2.0340    2.7330 c3        1 MOL     -0.317596
     12 C6          3.2590   -1.2860    1.3900 c         1 MOL      0.795398
     13 O3          4.0260   -0.3610    1.1780 o         1 MOL     -0.759546
     14 O4          2.4800   -1.5910    0.4430 o         1 MOL     -0.759546
     15 H4          2.5520   -3.4370    4.8570 hn        1 MOL      0.300192
     16 H5          1.1420   -2.6210    2.4600 h1        1 MOL      0.078860
     17 H6          4.0840   -2.5400    3.0230 hc        1 MOL      0.092504
     18 H7          2.9960   -1.2150    3.4440 hc        1 MOL      0.092504
     19 N2          1.9180   -4.2510    0.5920 n         1 MOL     -0.211700
     20 C7          1.9310   -5.2980   -0.4470 c3        1 MOL     -0.002331
     21 C8          3.2450   -5.3010   -1.3620 c         1 MOL      0.558275
     22 O5          3.7510   -6.3980   -1.5370 o         1 MOL     -0.542960
     23 C9          0.6220   -5.2920   -1.3340 c3        1 MOL     -0.275131
     24 C10        -0.5320   -5.8830   -0.4090 c3        1 MOL      0.047158
     25 C11        -1.8180   -5.9820   -1.2430 c3        1 MOL     -0.120499
     26 C12        -1.8240   -7.1310   -2.2820 c3        1 MOL      0.097105
     27 N3         -3.1180   -7.4300   -2.8570 n4        1 MOL     -0.309039
     28 H8          1.6760   -3.3070    0.3500 hn        1 MOL      0.244515
     29 H9          2.0760   -6.2650    0.0160 h1        1 MOL      0.100434
     30 H10         0.7960   -5.8950   -2.2150 hc        1 MOL      0.079137
     31 H11         0.3550   -4.2610   -1.5690 hc        1 MOL      0.079137
     32 H12        -0.6970   -5.2490    0.4630 hc        1 MOL      0.035514
     33 H13        -0.3320   -6.8920   -0.0700 hc        1 MOL      0.035514
     34 H14        -1.8660   -5.0840   -1.8540 hc        1 MOL      0.062325
     35 H15        -2.7400   -5.9850   -0.6530 hc        1 MOL      0.062325
     36 H16        -1.4990   -8.0690   -1.8490 hx        1 MOL      0.073275
     37 H17        -1.0200   -6.9600   -3.0030 hx        1 MOL      0.073275
     38 H18        -3.1640   -8.2080   -3.4930 hn        1 MOL      0.251713
     39 H19        -3.8220   -7.6070   -2.1400 hn        1 MOL      0.251713
     40 H20        -3.5550   -6.6660   -3.3490 hn        1 MOL      0.251713
     41 N4          3.8000   -4.1410   -1.6360 n         1 MOL     -0.527567
     42 C13         5.0570   -4.0490   -2.2500 c3        1 MOL      0.337787
     43 C14         6.1820   -3.7030   -1.2600 c         1 MOL      0.421017
     44 O6          7.2400   -4.3350   -1.2980 o         1 MOL     -0.533026
     45 C15         4.9610   -3.0910   -3.4340 c3        1 MOL     -0.420010
     46 C16         4.5520   -1.6310   -3.0850 c         1 MOL      0.871913
     47 O7          4.3860   -1.2390   -1.8730 o         1 MOL     -0.707567
     48 O8          4.5250   -0.8600   -4.0600 o         1 MOL     -0.707567
     49 H21         3.4340   -3.3040   -1.1950 hn        1 MOL      0.262856
     50 H22         5.4220   -5.0230   -2.5710 h1        1 MOL      0.035158
     51 H23         4.2130   -3.4820   -4.1270 hc        1 MOL      0.100377
     52 H24         5.9340   -3.1380   -3.9260 hc        1 MOL      0.100377
     53 N5          5.8220   -2.8410   -0.2910 n         1 MOL     -0.011181
     54 C17         6.7550   -2.4590    0.7810 c3        1 MOL     -0.234880
     55 C18         7.2220   -1.0180    0.7940 c         1 MOL      0.669315
     56 O9          8.0430   -0.6340    1.5990 o         1 MOL     -0.574298
     57 H25         4.9970   -2.2990   -0.5060 hn        1 MOL     -0.136474
     58 H26         7.5860   -3.1640    0.7350 h1        1 MOL      0.117624
     59 H27         6.2650   -2.5700    1.7560 h1        1 MOL      0.117624
     60 N6          6.8520   -0.1810   -0.2310 n         1 MOL     -0.289559
     61 C19         7.2610    1.2370   -0.4890 c3        1 MOL      0.162868
     62 C20         6.0940    2.2540   -0.5090 c         1 MOL      0.590474
     63 O10         4.9770    1.8610   -0.6450 o         1 MOL     -0.496759
     64 C21         8.3080    1.2910   -1.6070 c3        1 MOL     -0.531592
     65 C22         9.4790    0.4240   -1.3880 c         1 MOL      0.674340
     66 N7         10.3560    0.7360   -0.5140 n         1 MOL     -0.654008
     67 O11         9.6840   -0.6370   -2.0130 o         1 MOL     -0.559460
     68 H28         6.3100   -0.5630   -0.9860 hn        1 MOL      0.227198
     69 H29         7.8000    1.4870    0.4230 h1        1 MOL      0.004967
     70 H30         8.6030    2.2870   -1.9370 hc        1 MOL      0.138291
     71 H31         7.7480    0.8890   -2.4550 hc        1 MOL      0.138291
     72 H32        10.3870    1.6930   -0.1760 hn        1 MOL      0.331300
     73 H33        11.1420    0.1300   -0.3820 hn        1 MOL      0.331300
     74 N8          6.4450    3.6000   -0.4680 n         1 MOL     -0.519504
     75 C23         5.5150    4.7550   -0.6980 c3        1 MOL     -0.014060
     76 C24         4.4870    4.9250    0.3450 c         1 MOL      0.628016
     77 O12         4.7010    4.9040    1.5490 o         1 MOL     -0.534080
     78 H34         7.3740    3.8070   -0.1530 hn        1 MOL      0.322362
     79 H35         5.0520    4.6750   -1.6780 h1        1 MOL      0.065496
     80 H36         6.1840    5.6010   -0.8510 h1        1 MOL      0.065496
     81 N9          3.2390    4.9390   -0.1000 n         1 MOL     -0.880243
     82 C25         1.9820    4.8220    0.7680 c3        1 MOL      0.911130
     83 C26         1.7670    3.3680    1.0700 c         1 MOL      0.080536
     84 O13         2.5090    2.4530    0.7410 o         1 MOL     -0.300173
     85 C27         0.7730    5.3530    0.0210 c3        1 MOL     -0.314208
     86 C28         0.7860    6.8810   -0.2640 ca        1 MOL      0.154101
     87 C29         0.4790    7.3890   -1.5500 ca        1 MOL     -0.259739
     88 C30         1.0420    7.7690    0.7630 ca        1 MOL     -0.259739
     89 C31         0.2660    8.7430   -1.7670 ca        1 MOL     -0.199419
     90 C32         1.0770    9.1370    0.5590 ca        1 MOL     -0.199419
     91 C33         0.6040    9.6380   -0.6770 ca        1 MOL      0.312013
     92 O14         0.5880   10.9300   -0.9640 oh        1 MOL     -0.474436
     93 H37         3.1580    4.9970   -1.1090 hn        1 MOL      0.356563
     94 H38         2.0670    5.3520    1.7120 h1        1 MOL     -0.058404
     95 H39        -0.0400    5.3270    0.7490 hc        1 MOL      0.057694
     96 H40         0.4940    4.7650   -0.8560 hc        1 MOL      0.057694
     97 H41         0.2410    6.6570   -2.3140 ha        1 MOL      0.147066
     98 H42         1.3090    7.4640    1.7650 ha        1 MOL      0.147066
     99 H43        -0.0820    9.0710   -2.7330 ha        1 MOL      0.153792
    100 H44         1.3910    9.8450    1.3170 ha        1 MOL      0.153792
    101 H45         0.0940   11.1680   -1.7480 ho        1 MOL      0.374187
    102 N10         0.7240    3.0970    1.9310 n         1 MOL     -0.546770
    103 C34         0.1320    1.8650    2.4150 c3        1 MOL      0.031771
    104 C35        -0.2560    0.8930    1.2410 c         1 MOL      0.425509
    105 O15         0.5360    0.6400    0.4030 o         1 MOL     -0.317033
    106 C36         1.0590    1.1710    3.4590 c3        1 MOL      0.369537
    107 C37         0.2670    0.2260    4.4190 c3        1 MOL     -0.204757
    108 C38         2.0600    2.0990    4.2360 c3        1 MOL     -0.269890
    109 C39        -0.5790    0.8530    5.4880 c3        1 MOL     -0.247147
    110 H46         0.3090    3.9150    2.3470 hn        1 MOL      0.292853
    111 H47        -0.7510    2.2410    2.9260 h1        1 MOL      0.066539
    112 H48         1.6460    0.4900    2.8600 hc        1 MOL     -0.074021
    113 H49         0.9980   -0.4780    4.8360 hc        1 MOL      0.083827
    114 H50        -0.4170   -0.4310    3.8760 hc        1 MOL      0.083827
    115 H51         1.4760    2.9110    4.6780 hc        1 MOL      0.075380
    116 H52         2.6440    1.5850    5.0080 hc        1 MOL      0.075380
    117 H53         2.7570    2.6030    3.5710 hc        1 MOL      0.075380
    118 H54        -1.0940    0.0500    5.9990 hc        1 MOL      0.065902
    119 H55         0.0080    1.4660    6.1740 hc        1 MOL      0.065902
    120 H56        -1.3000    1.5030    4.9920 hc        1 MOL      0.065902
    121 N11        -1.4340    0.2200    1.2980 n         1 MOL     -0.589102
    122 C40        -1.8410   -0.9970    0.5140 c3        1 MOL     -0.058168
    123 C41        -3.2710   -1.0100    0.0740 c         1 MOL      0.643675
    124 O16        -3.6590   -1.9100   -0.6930 o         1 MOL     -0.583477
    125 C42        -1.4050   -2.2650    1.1900 c3        1 MOL      0.510875
    126 O17        -2.1200   -2.4660    2.4310 oh        1 MOL     -0.681667
    127 H57        -2.0930    0.5150    1.9980 hn        1 MOL      0.319066
    128 H58        -1.1930   -1.0380   -0.3610 h1        1 MOL      0.077988
    129 H59        -0.3350   -2.2110    1.4260 h1        1 MOL     -0.109775
    130 H60        -1.4720   -3.1730    0.5940 h1        1 MOL     -0.109775
    131 H61        -1.4860   -2.8860    3.0120 ho        1 MOL      0.445911
    132 N12        -4.0810   -0.0280    0.4590 n         1 MOL     -0.410240
    133 C43        -5.4270    0.1660   -0.1230 c3        1 MOL     -0.169758
    134 C44        -5.5230    0.6880   -1.5890 c         1 MOL      0.733868
    135 O18        -4.6130    1.2790   -2.1050 o         1 MOL     -0.585710
    136 C45        -6.1600    1.0770    0.8480 c3        1 MOL     -0.248370
    137 H62        -3.8250    0.6900    1.1310 hn        1 MOL      0.288221
    138 H63        -5.8600   -0.8380   -0.1270 h1        1 MOL      0.169905
    139 H64        -7.1530    1.3990    0.5400 hc        1 MOL      0.095882
    140 H65        -6.2460    0.6370    1.8470 hc        1 MOL      0.095882
    141 H66        -5.5760    1.9560    1.1210 hc        1 MOL      0.095882
    142 N13        -6.6090    0.4840   -2.3580 n         1 MOL     -0.673132
    143 C46        -7.8630   -0.2010   -1.9590 c3        1 MOL      0.336404
    144 C47        -9.0780    0.2680   -2.7720 c         1 MOL      0.363368
    145 O19        -8.9640    0.6640   -3.9660 o         1 MOL     -0.535793
    146 C48        -7.7230   -1.7110   -2.1900 c3        1 MOL     -0.200316
    147 H67        -6.5680    0.8110   -3.3220 hn        1 MOL      0.348150
    148 H68        -8.0400   -0.1560   -0.8920 h1        1 MOL      0.015212
    149 H69        -7.9350   -2.0690   -3.1990 hc        1 MOL      0.055472
    150 H70        -6.7490   -2.0190   -1.8140 hc        1 MOL      0.055472
    151 H71        -8.2790   -2.3470   -1.5010 hc        1 MOL      0.055472
    152 N14       -10.2040    0.3330   -2.1250 n         1 MOL     -0.233173
    153 C49       -10.6350    0.0160   -0.7480 c3        1 MOL     -0.484475
    154 C50       -10.1610    1.0950    0.2570 c         1 MOL      0.553800
    155 O20        -9.7760    0.7810    1.3720 o         1 MOL     -0.499019
    156 C51       -12.1960   -0.1140   -0.6840 c3        1 MOL      0.272492
    157 C52       -12.7120   -0.5330    0.7180 c3        1 MOL     -0.398403
    158 C53       -14.1570   -1.0260    0.7870 c         1 MOL      0.768866
    159 O21       -15.0360   -0.2650    1.3000 o         1 MOL     -0.667516
    160 O22       -14.4920   -2.0580    0.2590 o         1 MOL     -0.667516
    161 H72       -10.9060    0.7450   -2.7250 hn        1 MOL      0.247488
    162 H73       -10.2540   -0.9790   -0.4970 h1        1 MOL      0.201120
    163 H74       -12.5960   -0.7440   -1.4830 hc        1 MOL      0.004553
    164 H75       -12.7130    0.8180   -0.9260 hc        1 MOL      0.004553
    165 H76       -12.6250    0.2230    1.4940 hc        1 MOL      0.088512
    166 H77       -12.0760   -1.3500    1.0580 hc        1 MOL      0.088512
    167 N15       -10.0330    2.3250   -0.2600 n         1 MOL     -0.341991
    168 C54        -9.3250    3.4080    0.5060 c3        1 MOL     -0.128986
    169 H78        -9.8100    4.3650    0.3140 h1        1 MOL      0.085221
    170 H79        -9.3670    3.1880    1.5720 h1        1 MOL      0.085221
    171 H80        -8.2840    3.4590    0.1850 h1        1 MOL      0.085221
    172 H81       -10.4070    2.5380   -1.1770 hn        1 MOL      0.285101
    173 Ca1         2.6370    0.5410   -0.9960 Ca        1 MOL      1.707277
    174 O23         3.6140    1.4260   -3.2990 oh        1 MOL     -0.888766
    175 H82         3.9760    0.7650   -3.8920 ho        1 MOL      0.427736
    176 H83         3.8200    2.2550   -3.7310 ho        1 MOL      0.427736
    177 O24         1.0810    2.4140   -2.0160 oh        1 MOL     -0.888766
    178 H84         0.1930    2.4290   -1.6580 ho        1 MOL      0.427736
    179 H85         1.0740    3.0460   -2.7290 ho        1 MOL      0.427736
    180 O25         1.2120   -0.9930   -2.5570 oh        1 MOL     -0.888766
    181 H86         1.6450   -1.3640   -3.3270 ho        1 MOL      0.427736
    182 H87         0.2790   -1.1700   -2.6950 ho        1 MOL      0.427736
@<TRIPOS>BOND
     1    1    2 1   
     2    1    4 1   
     3    1    5 1   
     4    1    6 1   
     5    2    3 2   
     6    2    7 1   
     7    7    8 1   
     8    7   15 1   
     9    8    9 1   
    10    8   11 1   
    11    8   16 1   
    12    9   10 2   
    13    9   19 1   
    14   11   12 1   
    15   11   17 1   
    16   11   18 1   
    17   12   13 1   
    18   12   14 1   
    19   19   20 1   
    20   19   28 1   
    21   20   21 1   
    22   20   23 1   
    23   20   29 1   
    24   21   22 2   
    25   21   41 1   
    26   23   24 1   
    27   23   30 1   
    28   23   31 1   
    29   24   25 1   
    30   24   32 1   
    31   24   33 1   
    32   25   26 1   
    33   25   34 1   
    34   25   35 1   
    35   26   27 1   
    36   26   36 1   
    37   26   37 1   
    38   27   38 1   
    39   27   39 1   
    40   27   40 1   
    41   41   42 1   
    42   41   49 1   
    43   42   43 1   
    44   42   45 1   
    45   42   50 1   
    46   43   44 2   
    47   43   53 1   
    48   45   46 1   
    49   45   51 1   
    50   45   52 1   
    51   46   47 1   
    52   46   48 1   
    53   53   54 1   
    54   53   57 1   
    55   54   55 1   
    56   54   58 1   
    57   54   59 1   
    58   55   56 2   
    59   55   60 1   
    60   60   61 1   
    61   60   68 1   
    62   61   62 1   
    63   61   64 1   
    64   61   69 1   
    65   62   63 2   
    66   62   74 1   
    67   64   65 1   
    68   64   70 1   
    69   64   71 1   
    70   65   66 1   
    71   65   67 2   
    72   66   72 1   
    73   66   73 1   
    74   74   75 1   
    75   74   78 1   
    76   75   76 1   
    77   75   79 1   
    78   75   80 1   
    79   76   77 2   
    80   76   81 1   
    81   81   82 1   
    82   81   93 1   
    83   82   83 1   
    84   82   85 1   
    85   82   94 1   
    86   83   84 2   
    87   83  102 1   
    88   85   86 1   
    89   85   95 1   
    90   85   96 1   
    91   86   87 ar  
    92   86   88 ar  
    93   87   89 ar  
    94   87   97 1   
    95   88   90 ar  
    96   88   98 1   
    97   89   91 ar  
    98   89   99 1   
    99   90   91 ar  
   100   90  100 1   
   101   91   92 1   
   102   92  101 1   
   103  102  103 1   
   104  102  110 1   
   105  103  104 1   
   106  103  106 1   
   107  103  111 1   
   108  104  105 2   
   109  104  121 1   
   110  106  107 1   
   111  106  108 1   
   112  106  112 1   
   113  107  109 1   
   114  107  113 1   
   115  107  114 1   
   116  108  115 1   
   117  108  116 1   
   118  108  117 1   
   119  109  118 1   
   120  109  119 1   
   121  109  120 1   
   122  121  122 1   
   123  121  127 1   
   124  122  123 1   
   125  122  125 1   
   126  122  128 1   
   127  123  124 2   
   128  123  132 1   
   129  125  126 1   
   130  125  129 1   
   131  125  130 1   
   132  126  131 1   
   133  132  133 1   
   134  132  137 1   
   135  133  134 1   
   136  133  136 1   
   137  133  138 1   
   138  134  135 2   
   139  134  142 1   
   140  136  139 1   
   141  136  140 1   
   142  136  141 1   
   143  142  143 1   
   144  142  147 1   
   145  143  144 1   
   146  143  146 1   
   147  143  148 1   
   148  144  145 2   
   149  144  152 1   
   150  146  149 1   
   151  146  150 1   
   152  146  151 1   
   153  152  153 1   
   154  152  161 1   
   155  153  154 1   
   156  153  156 1   
   157  153  162 1   
   158  154  155 2   
   159  154  167 1   
   160  156  157 1   
   161  156  163 1   
   162  156  164 1   
   163  157  158 1   
   164  157  165 1   
   165  157  166 1   
   166  158  159 1   
   167  158  160 1   
   168  167  168 1   
   169  167  172 1   
   170  168  169 1   
   171  168  170 1   
   172  168  171 1   
   173  174  175 1   
   174  174  176 1   
   175  177  178 1   
   176  177  179 1   
   177  180  181 1   
   178  180  182 1   
@<TRIPOS>SUBSTRUCTURE
     1 MOL         1 TEMP              0 ****  ****    0 ROOT
