@<TRIPOS>MOLECULE
MOL
  192   187     1     0     0
SMALL
resp


@<TRIPOS>ATOM
      1 C1         -2.5330    8.0850    0.8490 c3        1 MOL     -0.362626
      2 C2         -2.7120    6.5280    1.0930 c         1 MOL      0.642929
      3 O1         -2.2650    5.9840    2.1150 o         1 MOL     -0.551210
      4 H1         -2.3650    8.5850    1.8020 hc        1 MOL      0.100891
      5 H2         -1.6770    8.2550    0.1950 hc        1 MOL      0.100891
      6 H3         -3.4330    8.4860    0.3820 hc        1 MOL      0.100891
      7 N1         -3.1280    5.7810    0.0050 n         1 MOL     -0.606218
      8 C3         -3.2900    4.3090    0.0330 c3        1 MOL      0.150202
      9 C4         -2.0490    3.5160   -0.1000 c         1 MOL      0.339658
     10 O2         -2.0670    2.3160    0.1390 o         1 MOL     -0.527400
     11 C5         -4.3980    3.9420   -1.0100 c3        1 MOL     -0.175978
     12 C6         -4.4780    4.5110   -2.4480 c         1 MOL      0.772129
     13 O3         -4.6790    3.6810   -3.3800 o         1 MOL     -0.729547
     14 O4         -4.2980    5.6880   -2.6260 o         1 MOL     -0.729547
     15 H4         -3.3550    6.2170   -0.8760 hn        1 MOL      0.347510
     16 H5         -3.6700    3.9770    1.0030 h1        1 MOL      0.071477
     17 H6         -5.3600    4.0720   -0.5110 hc        1 MOL      0.049063
     18 H7         -4.3400    2.8640   -1.1340 hc        1 MOL      0.049063
     19 N2         -0.9310    4.0930   -0.5370 n         1 MOL     -0.174500
     20 C7          0.2860    3.3520   -0.9450 c3        1 MOL      0.111674
     21 C8          1.3260    3.5600    0.1990 c         1 MOL      0.420633
     22 O5          1.3540    4.5840    0.8600 o         1 MOL     -0.537124
     23 C9          0.7880    3.9550   -2.3170 c3        1 MOL      0.107140
     24 C10         0.1360    3.4070   -3.5590 c3        1 MOL     -0.176550
     25 C11        -1.2220    4.0520   -3.8080 c3        1 MOL      0.189555
     26 C12        -1.7640    3.3840   -5.0750 c3        1 MOL     -0.063330
     27 N3         -3.0410    3.9640   -5.4610 n4        1 MOL     -0.233981
     28 H8         -0.9620    5.0610   -0.8300 hn        1 MOL      0.158232
     29 H9          0.0410    2.2990   -1.0420 h1        1 MOL      0.113847
     30 H10         1.8590    3.7650   -2.4260 hc        1 MOL     -0.006131
     31 H11         0.6760    5.0360   -2.3590 hc        1 MOL     -0.006131
     32 H12        -0.0620    2.3450   -3.4410 hc        1 MOL      0.036279
     33 H13         0.6040    3.6200   -4.5190 hc        1 MOL      0.036279
     34 H14        -1.0510    5.0970   -4.0290 hc        1 MOL     -0.011746
     35 H15        -1.8990    3.9020   -2.9670 hc        1 MOL     -0.011746
     36 H16        -1.8780    2.3170   -4.8950 hx        1 MOL      0.083819
     37 H17        -1.1460    3.5460   -5.9610 hx        1 MOL      0.083819
     38 H18        -3.5410    3.3490   -6.0910 hn        1 MOL      0.263408
     39 H19        -3.6870    4.1590   -4.7030 hn        1 MOL      0.263408
     40 H20        -3.0060    4.8400   -5.9700 hn        1 MOL      0.263408
     41 N4          2.1360    2.6120    0.5770 n         1 MOL     -0.367650
     42 C13         2.5260    1.3150    0.0090 c3        1 MOL     -0.086161
     43 C14         2.8340    1.4300   -1.5180 c         1 MOL      0.563098
     44 O6          2.0770    0.9360   -2.3700 o         1 MOL     -0.560247
     45 C15         1.5290    0.1350    0.2480 c3        1 MOL     -0.226494
     46 C16         1.1070    0.0140    1.7460 c         1 MOL      0.788554
     47 O7          0.2390   -0.8210    2.0730 o         1 MOL     -0.725766
     48 O8          1.4280    0.8050    2.6380 o         1 MOL     -0.725766
     49 H21         2.7020    2.8560    1.3800 hn        1 MOL      0.270131
     50 H22         3.4250    0.9340    0.4820 h1        1 MOL      0.084894
     51 H23         1.9280   -0.7830   -0.1740 hc        1 MOL      0.092459
     52 H24         0.5620    0.3310   -0.2290 hc        1 MOL      0.092459
     53 N5          3.9330    2.0530   -1.9440 n         1 MOL     -0.470495
     54 C17         4.9490    2.5540   -1.0220 c3        1 MOL      0.146689
     55 C18         6.0530    3.3750   -1.7340 c         1 MOL      0.461761
     56 O9          5.8230    3.8560   -2.8210 o         1 MOL     -0.529522
     57 H25         4.2630    2.1010   -2.9020 hn        1 MOL      0.329428
     58 H26         5.4110    1.7180   -0.5090 h1        1 MOL      0.020224
     59 H27         4.4710    3.1770   -0.2740 h1        1 MOL      0.020224
     60 N6          7.3140    3.3930   -1.2370 n         1 MOL     -0.350786
     61 C19         7.7480    2.7800   -0.0120 c3        1 MOL     -0.007614
     62 C20         8.1450    1.2440   -0.2600 c         1 MOL      0.553923
     63 O10         8.2040    0.7500   -1.3630 o         1 MOL     -0.474955
     64 C21         8.7160    3.6390    0.7920 c3        1 MOL     -0.242954
     65 C22         9.8950    4.0600   -0.1120 c         1 MOL      0.728466
     66 O11        11.0710    3.7470    0.1450 o         1 MOL     -0.632399
     67 O12         9.6720    4.8840   -1.0330 o         1 MOL     -0.632399
     68 H28         7.8770    4.1560   -1.5710 hn        1 MOL      0.265312
     69 H29         6.8400    2.7890    0.5880 h1        1 MOL      0.004618
     70 H30         9.1350    3.1140    1.6600 hc        1 MOL      0.053603
     71 H31         8.1690    4.5170    1.1200 hc        1 MOL      0.053603
     72 N7          8.2920    0.5040    0.8590 n         1 MOL     -0.415331
     73 C23         8.6560   -0.9120    0.8420 c3        1 MOL     -0.080513
     74 C24         7.4960   -1.9100    0.7420 c         1 MOL      0.433368
     75 O13         7.7630   -3.0480    0.3170 o         1 MOL     -0.514730
     76 H32         8.2330    1.0030    1.7310 hn        1 MOL      0.262627
     77 H33         9.2620   -1.0690    1.7340 h1        1 MOL      0.115517
     78 H34         9.4270   -1.1140    0.1010 h1        1 MOL      0.115517
     79 N8          6.2420   -1.6160    1.2090 n         1 MOL     -0.353314
     80 C25         5.0690   -2.4750    0.9940 c3        1 MOL      0.001339
     81 C26         4.6410   -2.6060   -0.4560 c         1 MOL      0.854607
     82 O14         4.8790   -1.6390   -1.1890 o         1 MOL     -0.523510
     83 C27         3.9960   -1.7910    1.8280 c3        1 MOL      0.026572
     84 C28         4.2900   -1.9430    3.3050 c3        1 MOL     -0.156204
     85 O15         2.8010   -2.4460    1.5600 oh        1 MOL     -0.419224
     86 H35         6.0840   -0.7010    1.6160 hn        1 MOL      0.216426
     87 H36         5.2830   -3.4490    1.4200 h1        1 MOL      0.065842
     88 H37         3.9290   -0.7170    1.6040 h1        1 MOL      0.047590
     89 H38         2.1020   -1.9870    2.0200 ho        1 MOL      0.262940
     90 H39         5.3310   -1.7380    3.5490 hc        1 MOL      0.045102
     91 H40         3.6380   -1.2800    3.8900 hc        1 MOL      0.045102
     92 H41         4.1090   -2.9650    3.6270 hc        1 MOL      0.045102
     93 N9          4.1030   -3.7590   -0.7960 n         1 MOL     -0.755987
     94 C29         3.4120   -4.1480   -2.0270 c3        1 MOL      0.021595
     95 C30         2.0500   -4.6820   -1.8560 c         1 MOL      0.562673
     96 O16         1.5070   -5.2960   -2.7830 o         1 MOL     -0.572144
     97 C31         4.3190   -5.0160   -3.0000 c3        1 MOL      0.048043
     98 C32         5.0390   -6.2280   -2.3280 c3        1 MOL      0.056109
     99 C33         5.3120   -4.1890   -3.7690 c3        1 MOL     -0.422995
    100 C34         4.1330   -7.2370   -1.5800 c3        1 MOL     -0.300531
    101 H42         4.0560   -4.4510   -0.0610 hn        1 MOL      0.353678
    102 H43         3.2870   -3.1410   -2.4370 h1        1 MOL      0.118560
    103 H44         3.6660   -5.3300   -3.8070 hc        1 MOL      0.068241
    104 H45         5.8460   -5.9500   -1.6520 hc        1 MOL      0.029377
    105 H46         5.5110   -6.7500   -3.1490 hc        1 MOL      0.029377
    106 H47         4.7980   -3.4350   -4.3570 hc        1 MOL      0.114679
    107 H48         6.0040   -3.6700   -3.1110 hc        1 MOL      0.114679
    108 H49         5.8490   -4.7260   -4.5520 hc        1 MOL      0.114679
    109 H50         4.7730   -8.1140   -1.4610 hc        1 MOL      0.074050
    110 H51         3.7550   -6.7570   -0.6780 hc        1 MOL      0.074050
    111 H52         3.2460   -7.3790   -2.1890 hc        1 MOL      0.074050
    112 N10         1.4600   -4.4920   -0.6880 n         1 MOL     -0.313584
    113 C35         0.0960   -4.8900   -0.3050 c3        1 MOL     -0.010185
    114 C36        -0.9120   -3.8800   -0.9340 c         1 MOL      0.539406
    115 O17        -0.5590   -2.8860   -1.5160 o         1 MOL     -0.501853
    116 C37        -0.0690   -5.1460    1.1910 c3        1 MOL      0.279506
    117 C38         1.0380   -6.0880    1.6930 c3        1 MOL     -0.141916
    118 O18        -1.3220   -5.7520    1.4120 oh        1 MOL     -0.601896
    119 H53         2.0380   -4.0680    0.0180 hn        1 MOL      0.169095
    120 H54        -0.0450   -5.8730   -0.7680 h1        1 MOL      0.112491
    121 H55         0.0220   -4.2030    1.7310 h1        1 MOL      0.046353
    122 H56        -1.4740   -5.5870    2.3450 ho        1 MOL      0.393204
    123 H57         1.9850   -5.5580    1.6030 hc        1 MOL      0.026301
    124 H58         0.8590   -6.1940    2.7640 hc        1 MOL      0.026301
    125 H59         1.0520   -7.0680    1.2140 hc        1 MOL      0.026301
    126 N11        -2.2040   -4.2290   -0.8190 n         1 MOL     -0.523686
    127 C39        -3.3270   -3.4100   -1.2440 c3        1 MOL      0.023224
    128 C40        -4.5600   -3.7510   -0.4410 c         1 MOL      0.685996
    129 O19        -4.7070   -4.8140    0.0950 o         1 MOL     -0.503955
    130 C41        -3.4880   -3.4900   -2.7710 c3        1 MOL      0.252193
    131 C42        -4.2920   -2.3460   -3.3190 c3        1 MOL     -0.450536
    132 O20        -3.9220   -4.8060   -3.2030 oh        1 MOL     -0.583341
    133 H60        -2.4750   -5.0520   -0.3060 hn        1 MOL      0.306159
    134 H61        -3.2060   -2.3480   -1.0110 h1        1 MOL      0.066146
    135 H62        -2.4860   -3.3870   -3.1850 h1        1 MOL      0.106374
    136 H63        -3.8550   -4.6310   -4.1480 ho        1 MOL      0.378258
    137 H64        -3.9210   -1.3980   -2.9350 hc        1 MOL      0.103927
    138 H65        -4.1540   -2.4060   -4.4080 hc        1 MOL      0.103927
    139 H66        -5.3740   -2.3690   -3.2160 hc        1 MOL      0.103927
    140 N12        -5.3850   -2.7740   -0.1790 n         1 MOL     -0.587800
    141 C43        -6.7710   -2.8730    0.4910 c3        1 MOL     -0.032268
    142 C44        -6.9840   -1.8430    1.5470 c         1 MOL      0.649197
    143 O21        -7.9470   -1.9890    2.3190 o         1 MOL     -0.580898
    144 C45        -7.9100   -3.0260   -0.5390 c3        1 MOL     -0.228870
    145 C46        -7.9440   -1.7690   -1.4670 c3        1 MOL      0.076953
    146 C47        -8.8740   -2.0560   -2.6720 c3        1 MOL     -0.084230
    147 C48        -9.0080   -0.7820   -3.5650 c3        1 MOL      0.014062
    148 N13       -10.0550   -0.9590   -4.5570 n4        1 MOL     -0.132433
    149 H67        -5.2580   -1.8950   -0.6610 hn        1 MOL      0.338768
    150 H68        -6.6530   -3.8440    0.9730 h1        1 MOL      0.123923
    151 H69        -8.9440   -3.0640   -0.1800 hc        1 MOL      0.108821
    152 H70        -7.6380   -3.9610   -1.0220 hc        1 MOL      0.108821
    153 H71        -6.9600   -1.5270   -1.8730 hc        1 MOL      0.013020
    154 H72        -8.3150   -0.9630   -0.8500 hc        1 MOL      0.013020
    155 H73        -9.8430   -2.3050   -2.2280 hc        1 MOL      0.040840
    156 H74        -8.4850   -2.9340   -3.1910 hc        1 MOL      0.040840
    157 H75        -8.0150   -0.5120   -3.9220 hx        1 MOL      0.082488
    158 H76        -9.4160    0.0490   -2.9950 hx        1 MOL      0.082488
    159 H77       -10.1250   -0.1890   -5.1990 hn        1 MOL      0.219582
    160 H78        -9.8740   -1.8350   -5.0360 hn        1 MOL      0.219582
    161 H79       -10.9800   -1.0960   -4.1920 hn        1 MOL      0.219582
    162 N14        -6.1950   -0.7720    1.5470 n         1 MOL     -0.345157
    163 C49        -6.2460    0.3420    2.5420 c3        1 MOL     -0.193233
    164 C50        -6.8250    1.6950    2.1050 c         1 MOL      0.574851
    165 O22        -6.7050    2.1130    0.9340 o         1 MOL     -0.562563
    166 C51        -4.9280    0.5820    3.2160 c3        1 MOL     -0.005379
    167 C52        -4.4720   -0.4760    4.1600 c3        1 MOL      0.360374
    168 C53        -3.0280   -0.3040    4.7040 c         1 MOL      0.499874
    169 O23        -2.6820    0.6990    5.4090 o         1 MOL     -0.751474
    170 O24        -2.1880   -1.2090    4.4050 o         1 MOL     -0.751474
    171 H80        -5.4990   -0.9100    0.8210 hn        1 MOL      0.206513
    172 H81        -6.9310   -0.0230    3.3150 h1        1 MOL      0.086588
    173 H82        -4.9350    1.5900    3.6520 hc        1 MOL      0.036687
    174 H83        -4.1540    0.5900    2.4380 hc        1 MOL      0.036687
    175 H84        -4.5960   -1.4800    3.7550 hc        1 MOL     -0.077788
    176 H85        -5.1890   -0.5000    4.9710 hc        1 MOL     -0.077788
    177 N15        -7.5480    2.4270    2.9610 n         1 MOL     -0.304846
    178 C54        -8.1690    3.7360    2.6470 c3        1 MOL     -0.226010
    179 H86        -8.3830    4.2680    3.5740 h1        1 MOL      0.119015
    180 H87        -7.4850    4.3270    2.0380 h1        1 MOL      0.119015
    181 H88        -9.0980    3.5750    2.0980 h1        1 MOL      0.119015
    182 H89        -7.6460    2.0040    3.8700 hn        1 MOL      0.252656
    183 Ca1         0.1020    0.0500    4.6810 Ca        1 MOL      1.750006
    184 O25        -1.5050    1.8510    3.1250 oh        1 MOL     -0.882906
    185 H90        -2.0130    1.8180    2.3120 ho        1 MOL      0.438973
    186 H91        -1.2250    2.7670    3.1870 ho        1 MOL      0.438973
    187 O26         2.5710    0.3930    5.6830 oh        1 MOL     -0.882906
    188 H92         3.3530    0.0740    6.1410 ho        1 MOL      0.438973
    189 H93         2.8080    1.2840    5.4050 ho        1 MOL      0.438973
    190 O27         1.2450   -2.3740    4.5050 oh        1 MOL     -0.882906
    191 H94         0.7010   -3.1500    4.3370 ho        1 MOL      0.438973
    192 H95         1.7930   -2.6290    5.2450 ho        1 MOL      0.438973
@<TRIPOS>BOND
     1    1    2 1   
     2    1    4 1   
     3    1    5 1   
     4    1    6 1   
     5    2    3 2   
     6    2    7 1   
     7    7    8 1   
     8    7   15 1   
     9    8    9 1   
    10    8   11 1   
    11    8   16 1   
    12    9   10 2   
    13    9   19 1   
    14   11   12 1   
    15   11   17 1   
    16   11   18 1   
    17   12   13 1   
    18   12   14 1   
    19   19   20 1   
    20   19   28 1   
    21   20   21 1   
    22   20   23 1   
    23   20   29 1   
    24   21   22 2   
    25   21   41 1   
    26   23   24 1   
    27   23   30 1   
    28   23   31 1   
    29   24   25 1   
    30   24   32 1   
    31   24   33 1   
    32   25   26 1   
    33   25   34 1   
    34   25   35 1   
    35   26   27 1   
    36   26   36 1   
    37   26   37 1   
    38   27   38 1   
    39   27   39 1   
    40   27   40 1   
    41   41   42 1   
    42   41   49 1   
    43   42   43 1   
    44   42   45 1   
    45   42   50 1   
    46   43   44 2   
    47   43   53 1   
    48   45   46 1   
    49   45   51 1   
    50   45   52 1   
    51   46   47 1   
    52   46   48 1   
    53   53   54 1   
    54   53   57 1   
    55   54   55 1   
    56   54   58 1   
    57   54   59 1   
    58   55   56 2   
    59   55   60 1   
    60   60   61 1   
    61   60   68 1   
    62   61   62 1   
    63   61   64 1   
    64   61   69 1   
    65   62   63 2   
    66   62   72 1   
    67   64   65 1   
    68   64   70 1   
    69   64   71 1   
    70   65   66 1   
    71   65   67 1   
    72   72   73 1   
    73   72   76 1   
    74   73   74 1   
    75   73   77 1   
    76   73   78 1   
    77   74   75 2   
    78   74   79 1   
    79   79   80 1   
    80   79   86 1   
    81   80   81 1   
    82   80   83 1   
    83   80   87 1   
    84   81   82 2   
    85   81   93 1   
    86   83   84 1   
    87   83   85 1   
    88   83   88 1   
    89   84   90 1   
    90   84   91 1   
    91   84   92 1   
    92   85   89 1   
    93   93   94 1   
    94   93  101 1   
    95   94   95 1   
    96   94   97 1   
    97   94  102 1   
    98   95   96 2   
    99   95  112 1   
   100   97   98 1   
   101   97   99 1   
   102   97  103 1   
   103   98  100 1   
   104   98  104 1   
   105   98  105 1   
   106   99  106 1   
   107   99  107 1   
   108   99  108 1   
   109  100  109 1   
   110  100  110 1   
   111  100  111 1   
   112  112  113 1   
   113  112  119 1   
   114  113  114 1   
   115  113  116 1   
   116  113  120 1   
   117  114  115 2   
   118  114  126 1   
   119  116  117 1   
   120  116  118 1   
   121  116  121 1   
   122  117  123 1   
   123  117  124 1   
   124  117  125 1   
   125  118  122 1   
   126  126  127 1   
   127  126  133 1   
   128  127  128 1   
   129  127  130 1   
   130  127  134 1   
   131  128  129 2   
   132  128  140 1   
   133  130  131 1   
   134  130  132 1   
   135  130  135 1   
   136  131  137 1   
   137  131  138 1   
   138  131  139 1   
   139  132  136 1   
   140  140  141 1   
   141  140  149 1   
   142  141  142 1   
   143  141  144 1   
   144  141  150 1   
   145  142  143 2   
   146  142  162 1   
   147  144  145 1   
   148  144  151 1   
   149  144  152 1   
   150  145  146 1   
   151  145  153 1   
   152  145  154 1   
   153  146  147 1   
   154  146  155 1   
   155  146  156 1   
   156  147  148 1   
   157  147  157 1   
   158  147  158 1   
   159  148  159 1   
   160  148  160 1   
   161  148  161 1   
   162  162  163 1   
   163  162  171 1   
   164  163  164 1   
   165  163  166 1   
   166  163  172 1   
   167  164  165 2   
   168  164  177 1   
   169  166  167 1   
   170  166  173 1   
   171  166  174 1   
   172  167  168 1   
   173  167  175 1   
   174  167  176 1   
   175  168  169 1   
   176  168  170 1   
   177  177  178 1   
   178  177  182 1   
   179  178  179 1   
   180  178  180 1   
   181  178  181 1   
   182  184  185 1   
   183  184  186 1   
   184  187  188 1   
   185  187  189 1   
   186  190  191 1   
   187  190  192 1   
@<TRIPOS>SUBSTRUCTURE
     1 MOL         1 TEMP              0 ****  ****    0 ROOT
