@<TRIPOS>MOLECULE
MOL
  195   189     1     0     0
SMALL
resp


@<TRIPOS>ATOM
      1 C1          4.1900   -3.4830   -3.1550 c3        1 MOL     -0.186940
      2 C2          3.0520   -3.9700   -2.2210 c         1 MOL      0.765482
      3 O1          2.1810   -3.1280   -1.8780 o         1 MOL     -0.534121
      4 H1          5.1030   -4.0370   -2.9350 hc        1 MOL      0.037901
      5 H2          3.9050   -3.6510   -4.1940 hc        1 MOL      0.037901
      6 H3          4.3640   -2.4190   -2.9920 hc        1 MOL      0.037901
      7 N1          3.0980   -5.1950   -1.6650 n         1 MOL     -0.549672
      8 C3          2.3560   -5.4900   -0.4630 c3        1 MOL      0.048594
      9 C4          0.7990   -5.4090   -0.5500 c         1 MOL      0.639877
     10 O2          0.1500   -5.2350    0.4580 o         1 MOL     -0.539409
     11 C5          2.9080   -4.7470    0.7830 c3        1 MOL     -0.532204
     12 C6          4.4540   -4.5960    0.7490 c         1 MOL      0.798596
     13 O3          5.2670   -5.3210    1.4430 o         1 MOL     -0.779860
     14 O4          4.9900   -3.7060    0.0850 o         1 MOL     -0.779860
     15 H4          3.8060   -5.8580   -1.9500 hn        1 MOL      0.304385
     16 H5          2.4510   -6.5630   -0.2920 h1        1 MOL      0.080017
     17 H6          2.6580   -5.2220    1.7340 hc        1 MOL      0.195285
     18 H7          2.5550   -3.7110    0.7470 hc        1 MOL      0.195285
     19 N2          0.2090   -5.5890   -1.7090 n         1 MOL     -0.486979
     20 C7         -1.2550   -5.4540   -1.9330 c3        1 MOL     -0.100562
     21 C8         -2.0550   -6.5570   -1.2080 c         1 MOL      0.723931
     22 O5         -1.6480   -7.6580   -1.0240 o         1 MOL     -0.588349
     23 C9         -1.6090   -5.4500   -3.4190 c3        1 MOL      0.094917
     24 C10        -0.7760   -6.4900   -4.2370 c3        1 MOL      0.182681
     25 C11        -1.3150   -4.0960   -4.1330 c3        1 MOL     -0.075774
     26 C12        -1.4470   -6.9840   -5.5680 c3        1 MOL     -0.140959
     27 H8          0.8250   -5.7370   -2.4990 hn        1 MOL      0.169107
     28 H9         -1.5780   -4.4460   -1.6610 h1        1 MOL      0.206863
     29 H10        -2.6830   -5.5500   -3.5760 hc        1 MOL      0.030801
     30 H11        -0.6680   -7.4090   -3.6540 hc        1 MOL     -0.052084
     31 H12         0.1720   -6.0030   -4.4430 hc        1 MOL     -0.052084
     32 H13        -1.6270   -4.0870   -5.1720 hc        1 MOL      0.013503
     33 H14        -1.9290   -3.3730   -3.6170 hc        1 MOL      0.013503
     34 H15        -0.2540   -3.8460   -4.0560 hc        1 MOL      0.013503
     35 H16        -0.8500   -7.7790   -6.0180 hc        1 MOL      0.017084
     36 H17        -2.4740   -7.3080   -5.3790 hc        1 MOL      0.017084
     37 H18        -1.4370   -6.1700   -6.2940 hc        1 MOL      0.017084
     38 N3         -3.2630   -6.3120   -0.6970 n         1 MOL     -0.625219
     39 C13        -3.8370   -4.9860   -0.2450 c3        1 MOL      0.014740
     40 C14        -4.8970   -5.0860    0.8950 c         1 MOL      0.677420
     41 O6         -5.9750   -5.6400    0.8840 o         1 MOL     -0.532972
     42 C15        -4.5540   -4.3530   -1.4640 c3        1 MOL     -0.397674
     43 C16        -5.2790   -3.0520   -1.0810 c         1 MOL      0.736118
     44 O7         -6.3880   -2.8520   -1.6330 o         1 MOL     -0.681588
     45 O8         -4.8340   -2.3220   -0.1670 o         1 MOL     -0.681588
     46 H19        -3.6340   -7.0280   -0.0830 hn        1 MOL      0.317617
     47 H20        -2.9840   -4.4070    0.1120 h1        1 MOL      0.031754
     48 H21        -5.3060   -5.0700   -1.7870 hc        1 MOL      0.099953
     49 H22        -3.7970   -4.1080   -2.2000 hc        1 MOL      0.099953
     50 N4         -4.5200   -4.5230    2.0410 n         1 MOL     -0.477001
     51 C17        -5.1860   -4.5930    3.3900 c3        1 MOL     -0.250156
     52 C18        -6.1100   -3.4240    3.7500 c         1 MOL      0.674773
     53 O9         -6.6800   -3.3730    4.8250 o         1 MOL     -0.626962
     54 H23        -3.6300   -4.0570    2.1130 hn        1 MOL      0.339143
     55 H24        -4.4310   -4.5720    4.1760 h1        1 MOL      0.111972
     56 H25        -5.8080   -5.4740    3.5230 h1        1 MOL      0.111972
     57 N5         -6.0550   -2.4300    2.9100 n         1 MOL     -0.412956
     58 C19        -6.6420   -1.0560    3.2590 c3        1 MOL      0.031622
     59 C20        -7.5200   -0.4390    2.1560 c         1 MOL      0.472619
     60 O10        -8.6240    0.0140    2.4030 o         1 MOL     -0.575449
     61 C21        -5.5670   -0.0860    3.7690 c3        1 MOL     -0.246270
     62 C22        -4.4470    0.1110    2.7590 c         1 MOL      0.652916
     63 O11        -3.4140   -0.6050    2.9280 o         1 MOL     -0.665716
     64 O12        -4.7220    0.9370    1.7850 o         1 MOL     -0.665716
     65 H26        -5.5430   -2.5190    2.0410 hn        1 MOL      0.280395
     66 H27        -7.4190   -1.2450    4.0010 h1        1 MOL      0.067304
     67 H28        -5.2540   -0.7360    4.5780 hc        1 MOL      0.054568
     68 H29        -5.9630    0.8360    4.2120 hc        1 MOL      0.054568
     69 N6         -7.1510   -0.7400    0.9030 n         1 MOL     -0.269500
     70 C23        -7.8750   -0.2110   -0.2360 c3        1 MOL     -0.023834
     71 C24        -7.7690    1.3230   -0.4550 c         1 MOL      0.404235
     72 O13        -8.6100    1.8410   -1.2080 o         1 MOL     -0.591138
     73 H30        -6.2340   -1.1360    0.7650 hn        1 MOL      0.251246
     74 H31        -8.9050   -0.5360   -0.1460 h1        1 MOL      0.066892
     75 H32        -7.3790   -0.6940   -1.0810 h1        1 MOL      0.066892
     76 N7         -6.8830    2.0020    0.3080 n         1 MOL      0.130728
     77 C25        -6.8320    3.4250    0.3630 c3        1 MOL     -0.113136
     78 C26        -6.3630    3.9550   -0.9720 c         1 MOL      0.464210
     79 O14        -6.6470    5.1270   -1.2850 o         1 MOL     -0.516451
     80 C27        -8.0950    4.0080    1.0120 c3        1 MOL      0.151288
     81 C28        -8.2530    3.7350    2.5280 c3        1 MOL     -0.329988
     82 C29        -7.1690    4.3270    3.4110 c         1 MOL      0.595757
     83 N8         -6.9150    3.6530    4.5220 n         1 MOL     -0.695107
     84 O15        -6.5480    5.3620    3.2320 o         1 MOL     -0.537209
     85 H33        -6.2830    1.4170    0.8710 hn        1 MOL      0.038506
     86 H34        -5.9810    3.6420    1.0070 h1        1 MOL      0.126267
     87 H35        -8.9530    3.6270    0.4740 hc        1 MOL     -0.008772
     88 H36        -8.0550    5.0760    0.8240 hc        1 MOL     -0.008772
     89 H37        -8.2960    2.6500    2.6080 hc        1 MOL      0.078413
     90 H38        -9.2120    4.1030    2.8950 hc        1 MOL      0.078413
     91 H39        -7.5300    2.8890    4.7330 hn        1 MOL      0.323931
     92 H40        -6.2700    4.0010    5.2280 hn        1 MOL      0.323931
     93 N9         -5.5640    3.2200   -1.7560 n         1 MOL     -0.404454
     94 C30        -4.9240    3.6350   -3.0010 c3        1 MOL     -0.012435
     95 C31        -3.4240    3.4590   -3.2070 c         1 MOL      0.707104
     96 O16        -2.8790    3.8650   -4.2120 o         1 MOL     -0.595571
     97 C32        -5.6670    2.9640   -4.2030 c3        1 MOL      0.343486
     98 C33        -5.4860    1.4170   -4.2140 c3        1 MOL     -0.434791
     99 C34        -7.1650    3.2090   -4.1960 c3        1 MOL     -0.434791
    100 H41        -5.3330    2.2980   -1.4330 hn        1 MOL      0.202573
    101 H42        -5.0170    4.7180   -3.1310 h1        1 MOL      0.055880
    102 H43        -5.2540    3.4440   -5.0900 hc        1 MOL     -0.069112
    103 H44        -4.4000    1.2950   -4.1940 hc        1 MOL      0.103766
    104 H45        -6.0380    0.9160   -3.4250 hc        1 MOL      0.103766
    105 H46        -5.9680    0.9960   -5.1020 hc        1 MOL      0.103766
    106 H47        -7.6370    2.7370   -5.0560 hc        1 MOL      0.103766
    107 H48        -7.5910    2.8410   -3.2610 hc        1 MOL      0.103766
    108 H49        -7.4380    4.2700   -4.1790 hc        1 MOL      0.103766
    109 N10        -2.7110    2.7960   -2.2550 n         1 MOL     -0.625354
    110 C35        -1.2900    2.4150   -2.2440 c3        1 MOL      0.341819
    111 C36        -0.4700    3.0610   -1.1420 c         1 MOL      0.501492
    112 O17        -1.0150    3.4860   -0.1350 o         1 MOL     -0.537776
    113 C37        -1.3450    0.8930   -2.2670 c3        1 MOL     -0.282505
    114 C38         0.0560    0.1410   -2.2920 c         1 MOL      0.570319
    115 N11        -0.0030   -1.0370   -1.7330 n         1 MOL     -0.674764
    116 O18         1.0610    0.4980   -2.9150 o         1 MOL     -0.557929
    117 H50        -3.2830    2.2530   -1.6310 hn        1 MOL      0.280650
    118 H51        -0.8360    2.8210   -3.1440 h1        1 MOL      0.009104
    119 H52        -1.9890    0.4780   -3.0380 hc        1 MOL      0.101813
    120 H53        -1.8380    0.7080   -1.3060 hc        1 MOL      0.101813
    121 H54        -0.7490   -1.3760   -1.1330 hn        1 MOL      0.326476
    122 H55         0.7430   -1.7160   -1.8330 hn        1 MOL      0.326476
    123 N12         0.8510    3.1070   -1.2830 n         1 MOL     -0.431159
    124 C39         1.7620    3.5920   -0.3080 c3        1 MOL      0.315065
    125 C40         3.1560    3.9800   -0.8820 c         1 MOL      0.288901
    126 O19         3.5460    3.5260   -1.9730 o         1 MOL     -0.471205
    127 C41         1.9150    2.5180    0.8010 c3        1 MOL     -0.282797
    128 C42         2.2900    3.1580    2.1320 ca        1 MOL      0.019813
    129 C43         3.6260    3.1900    2.6530 ca        1 MOL     -0.116059
    130 C44         1.2640    3.5900    3.0320 ca        1 MOL     -0.116059
    131 C45         3.8580    3.4930    4.0150 ca        1 MOL     -0.265519
    132 C46         1.5380    3.8020    4.4080 ca        1 MOL     -0.265519
    133 C47         2.8120    3.8020    4.8880 ca        1 MOL      0.334188
    134 O20         3.1020    4.1200    6.1810 oh        1 MOL     -0.522229
    135 H56         1.2590    2.7420   -2.1290 hn        1 MOL      0.212630
    136 H57         1.3020    4.5060    0.0730 h1        1 MOL      0.018029
    137 H58         2.7690    1.9210    0.4740 hc        1 MOL      0.146633
    138 H59         0.9810    1.9790    0.9570 hc        1 MOL      0.146633
    139 H60         4.5020    2.8470    2.1270 ha        1 MOL      0.158557
    140 H61         0.2720    3.7170    2.6200 ha        1 MOL      0.158557
    141 H62         4.8520    3.4030    4.4230 ha        1 MOL      0.138227
    142 H63         0.7670    4.0580    5.1210 ha        1 MOL      0.138227
    143 H64         4.0260    4.3290    6.3350 ho        1 MOL      0.360329
    144 N13         3.8520    4.9160   -0.2160 n         1 MOL     -0.273426
    145 C48         5.1800    5.4450   -0.5120 c3        1 MOL      0.008279
    146 C49         6.1170    4.8690    0.5370 c         1 MOL      0.429596
    147 O21         6.3190    5.5170    1.6030 o         1 MOL     -0.582963
    148 C50         5.1360    6.9810   -0.5470 c3        1 MOL      0.052882
    149 C51         4.2140    7.5060   -1.6710 c3        1 MOL     -0.125648
    150 C52         4.3120    9.0780   -1.7130 c         1 MOL      0.633609
    151 O22         4.0350    9.6480   -0.6690 o         1 MOL     -0.697870
    152 O23         4.8350    9.5730   -2.7930 o         1 MOL     -0.697870
    153 H65         3.3520    5.3290    0.5510 hn        1 MOL      0.246407
    154 H66         5.5020    5.1440   -1.5050 h1        1 MOL      0.143088
    155 H67         6.1500    7.3250   -0.7310 hc        1 MOL      0.032315
    156 H68         4.7700    7.4400    0.3730 hc        1 MOL      0.032315
    157 H69         3.1950    7.1400   -1.5100 hc        1 MOL     -0.012810
    158 H70         4.5930    7.1560   -2.6200 hc        1 MOL     -0.012810
    159 N14         6.5700    3.6020    0.5270 n         1 MOL     -0.546967
    160 C53         6.3850    2.5880   -0.5260 c3        1 MOL      0.076657
    161 C54         6.9670    2.9240   -1.8530 c         1 MOL      0.454988
    162 O24         7.9780    3.5380   -2.0010 o         1 MOL     -0.510266
    163 C55         6.8080    1.2580    0.0930 c3        1 MOL      0.333800
    164 C56         6.3370    0.7770    1.4440 c3        1 MOL     -0.460107
    165 C57         6.7530   -0.7160    1.6060 c         1 MOL      1.096783
    166 O25         7.8800   -1.1890    1.4120 o         1 MOL     -0.838913
    167 O26         5.9210   -1.5860    1.9700 o         1 MOL     -0.838913
    168 H71         7.1690    3.4360    1.3260 hn        1 MOL      0.355952
    169 H72         5.2930    2.5600   -0.6070 h1        1 MOL      0.039652
    170 H73         7.8950    1.3270    0.0620 hc        1 MOL     -0.101027
    171 H74         6.5770    0.5430   -0.6980 hc        1 MOL     -0.101027
    172 H75         5.2530    0.9360    1.4200 hc        1 MOL      0.035118
    173 H76         6.9000    1.3170    2.2020 hc        1 MOL      0.035118
    174 N15         6.2700    2.4600   -2.8530 n         1 MOL     -0.337293
    175 C58         6.2700    2.7810   -4.3050 c3        1 MOL     -0.056509
    176 H77         7.2560    2.5750   -4.7220 h1        1 MOL      0.058375
    177 H78         5.5260    2.1670   -4.8140 h1        1 MOL      0.058375
    178 H79         6.0300    3.8340   -4.4450 h1        1 MOL      0.058375
    179 H80         5.4390    1.9370   -2.6110 hn        1 MOL      0.271568
    180 Ca1         7.3830   -3.7570    1.5780 Ca        1 MOL      1.819189
    181 O27         8.1510   -5.9850    2.7930 oh        1 MOL     -0.840558
    182 H81         8.9450   -6.2740    2.3370 ho        1 MOL      0.405804
    183 H82         8.1830   -6.4310    3.6420 ho        1 MOL      0.405804
    184 O28         9.6200   -3.2010    2.8880 oh        1 MOL     -0.840558
    185 H83        10.5130   -3.1640    2.5420 ho        1 MOL      0.405804
    186 H84         9.6830   -2.8190    3.7620 ho        1 MOL      0.405804
    187 O29         8.4290   -5.5290   -0.0620 oh        1 MOL     -0.840558
    188 H85         8.9880   -5.2120   -0.7750 ho        1 MOL      0.405804
    189 H86         7.8910   -6.2070   -0.4620 ho        1 MOL      0.405804
    190 O30         7.8550   -2.8350   -0.8920 oh        1 MOL     -0.840558
    191 H87         7.2460   -2.8610   -1.6370 ho        1 MOL      0.405804
    192 H88         8.7080   -2.6850   -1.2910 ho        1 MOL      0.405804
    193 O31         6.7820   -3.3710    4.2310 oh        1 MOL     -0.840558
    194 H89         5.9920   -3.8960    4.3780 ho        1 MOL      0.405804
    195 H90         6.9190   -2.9050    5.0570 ho        1 MOL      0.405804
@<TRIPOS>BOND
     1    1    2 1   
     2    1    4 1   
     3    1    5 1   
     4    1    6 1   
     5    2    3 2   
     6    2    7 1   
     7    7    8 1   
     8    7   15 1   
     9    8    9 1   
    10    8   11 1   
    11    8   16 1   
    12    9   10 2   
    13    9   19 1   
    14   11   12 1   
    15   11   17 1   
    16   11   18 1   
    17   12   13 1   
    18   12   14 1   
    19   19   20 1   
    20   19   27 1   
    21   20   21 1   
    22   20   23 1   
    23   20   28 1   
    24   21   22 2   
    25   21   38 1   
    26   23   24 1   
    27   23   25 1   
    28   23   29 1   
    29   24   26 1   
    30   24   30 1   
    31   24   31 1   
    32   25   32 1   
    33   25   33 1   
    34   25   34 1   
    35   26   35 1   
    36   26   36 1   
    37   26   37 1   
    38   38   39 1   
    39   38   46 1   
    40   39   40 1   
    41   39   42 1   
    42   39   47 1   
    43   40   41 2   
    44   40   50 1   
    45   42   43 1   
    46   42   48 1   
    47   42   49 1   
    48   43   44 1   
    49   43   45 1   
    50   50   51 1   
    51   50   54 1   
    52   51   52 1   
    53   51   55 1   
    54   51   56 1   
    55   52   53 2   
    56   52   57 1   
    57   57   58 1   
    58   57   65 1   
    59   58   59 1   
    60   58   61 1   
    61   58   66 1   
    62   59   60 2   
    63   59   69 1   
    64   61   62 1   
    65   61   67 1   
    66   61   68 1   
    67   62   63 1   
    68   62   64 1   
    69   69   70 1   
    70   69   73 1   
    71   70   71 1   
    72   70   74 1   
    73   70   75 1   
    74   71   72 2   
    75   71   76 1   
    76   76   77 1   
    77   76   85 1   
    78   77   78 1   
    79   77   80 1   
    80   77   86 1   
    81   78   79 2   
    82   78   93 1   
    83   80   81 1   
    84   80   87 1   
    85   80   88 1   
    86   81   82 1   
    87   81   89 1   
    88   81   90 1   
    89   82   83 1   
    90   82   84 2   
    91   83   91 1   
    92   83   92 1   
    93   93   94 1   
    94   93  100 1   
    95   94   95 1   
    96   94   97 1   
    97   94  101 1   
    98   95   96 2   
    99   95  109 1   
   100   97   98 1   
   101   97   99 1   
   102   97  102 1   
   103   98  103 1   
   104   98  104 1   
   105   98  105 1   
   106   99  106 1   
   107   99  107 1   
   108   99  108 1   
   109  109  110 1   
   110  109  117 1   
   111  110  111 1   
   112  110  113 1   
   113  110  118 1   
   114  111  112 2   
   115  111  123 1   
   116  113  114 1   
   117  113  119 1   
   118  113  120 1   
   119  114  115 1   
   120  114  116 2   
   121  115  121 1   
   122  115  122 1   
   123  123  124 1   
   124  123  135 1   
   125  124  125 1   
   126  124  127 1   
   127  124  136 1   
   128  125  126 2   
   129  125  144 1   
   130  127  128 1   
   131  127  137 1   
   132  127  138 1   
   133  128  129 ar  
   134  128  130 ar  
   135  129  131 ar  
   136  129  139 1   
   137  130  132 ar  
   138  130  140 1   
   139  131  133 ar  
   140  131  141 1   
   141  132  133 ar  
   142  132  142 1   
   143  133  134 1   
   144  134  143 1   
   145  144  145 1   
   146  144  153 1   
   147  145  146 1   
   148  145  148 1   
   149  145  154 1   
   150  146  147 2   
   151  146  159 1   
   152  148  149 1   
   153  148  155 1   
   154  148  156 1   
   155  149  150 1   
   156  149  157 1   
   157  149  158 1   
   158  150  151 1   
   159  150  152 1   
   160  159  160 1   
   161  159  168 1   
   162  160  161 1   
   163  160  163 1   
   164  160  169 1   
   165  161  162 2   
   166  161  174 1   
   167  163  164 1   
   168  163  170 1   
   169  163  171 1   
   170  164  165 1   
   171  164  172 1   
   172  164  173 1   
   173  165  166 1   
   174  165  167 1   
   175  174  175 1   
   176  174  179 1   
   177  175  176 1   
   178  175  177 1   
   179  175  178 1   
   180  181  182 1   
   181  181  183 1   
   182  184  185 1   
   183  184  186 1   
   184  187  188 1   
   185  187  189 1   
   186  190  191 1   
   187  190  192 1   
   188  193  194 1   
   189  193  195 1   
@<TRIPOS>SUBSTRUCTURE
     1 MOL         1 TEMP              0 ****  ****    0 ROOT
