@<TRIPOS>MOLECULE
MOL
  192   187     1     0     0
SMALL
resp


@<TRIPOS>ATOM
      1 C1         -6.0190   -2.7230    5.4190 c3        1 MOL     -0.282944
      2 C2         -5.3980   -2.2320    4.0610 c         1 MOL      0.530439
      3 O1         -5.1340   -3.0440    3.1520 o         1 MOL     -0.542112
      4 H1         -5.6270   -3.7110    5.6610 hc        1 MOL      0.079377
      5 H2         -5.7560   -2.0240    6.2130 hc        1 MOL      0.079377
      6 H3         -7.1040   -2.7760    5.3250 hc        1 MOL      0.079377
      7 N1         -5.2170   -0.9210    3.8050 n         1 MOL     -0.188605
      8 C3         -4.8750   -0.3680    2.5160 c3        1 MOL      0.178412
      9 C4         -3.3480   -0.4260    2.1490 c         1 MOL      0.214488
     10 O2         -2.9840   -0.1320    0.9920 o         1 MOL     -0.267222
     11 C5         -5.4030    1.0820    2.6060 c3        1 MOL     -0.026412
     12 C6         -6.8480    1.1720    3.1290 c         1 MOL      0.705908
     13 O3         -7.6450    1.5100    2.2540 o         1 MOL     -0.705814
     14 O4         -7.2130    1.0140    4.3020 o         1 MOL     -0.705814
     15 H4         -5.4360   -0.3300    4.5900 hn        1 MOL      0.138001
     16 H5         -5.4260   -0.8950    1.7460 h1        1 MOL      0.020684
     17 H6         -5.3540    1.4400    1.5730 hc        1 MOL     -0.068448
     18 H7         -4.8120    1.6480    3.3320 hc        1 MOL     -0.068448
     19 N2         -2.4540   -0.6660    3.0860 n         1 MOL     -0.458389
     20 C7         -0.9670   -0.7750    2.9830 c3        1 MOL      0.157606
     21 C8         -0.5340   -2.0990    2.4180 c         1 MOL      0.464365
     22 O5         -0.9770   -3.1240    2.9880 o         1 MOL     -0.528133
     23 C9         -0.4070   -0.5590    4.4380 c3        1 MOL     -0.210474
     24 C10        -1.1030    0.5290    5.2470 c3        1 MOL      0.539099
     25 C11        -0.3560    0.7980    6.5770 c3        1 MOL     -0.077095
     26 C12        -1.3410    1.5120    7.5090 c3        1 MOL     -0.028912
     27 N3         -0.5840    2.2620    8.5140 n4        1 MOL     -0.226777
     28 H8         -2.8360   -0.9630    3.9740 hn        1 MOL      0.262175
     29 H9         -0.5780    0.0100    2.3360 h1        1 MOL      0.129801
     30 H10         0.6520   -0.3490    4.2900 hc        1 MOL      0.030787
     31 H11        -0.5510   -1.4790    5.0180 hc        1 MOL      0.030787
     32 H12        -2.1390    0.2640    5.4400 hc        1 MOL     -0.155555
     33 H13        -1.0380    1.3880    4.5830 hc        1 MOL     -0.155555
     34 H14         0.4640    1.4720    6.3410 hc        1 MOL      0.033431
     35 H15        -0.0760   -0.1320    7.0680 hc        1 MOL      0.033431
     36 H16        -1.9900    0.7350    7.9010 hx        1 MOL      0.087627
     37 H17        -1.7850    2.3180    6.9270 hx        1 MOL      0.087627
     38 H18         0.1180    1.7750    9.0600 hn        1 MOL      0.272637
     39 H19        -0.1120    3.0180    8.0470 hn        1 MOL      0.272637
     40 H20        -1.1980    2.5910    9.2510 hn        1 MOL      0.272637
     41 N4          0.3500   -2.2480    1.4390 n         1 MOL     -0.254442
     42 C13         1.1680   -1.3570    0.6980 c3        1 MOL     -0.059571
     43 C14         1.9430   -0.3800    1.5600 c         1 MOL      0.487765
     44 O6          1.5050    0.7180    1.9010 o         1 MOL     -0.552692
     45 C15         0.3680   -0.5940   -0.4560 c3        1 MOL     -0.563568
     46 C16        -0.0560   -1.4830   -1.6110 c         1 MOL      0.767921
     47 O7          0.3650   -2.6380   -1.6600 o         1 MOL     -0.740038
     48 O8         -0.9010   -1.0300   -2.4490 o         1 MOL     -0.740038
     49 H21         0.4670   -3.2240    1.2200 hn        1 MOL      0.179514
     50 H22         1.9570   -1.9160    0.2080 h1        1 MOL      0.046498
     51 H23         0.9520    0.2490   -0.8110 hc        1 MOL      0.203644
     52 H24        -0.5120   -0.1050   -0.0360 hc        1 MOL      0.203644
     53 N5          3.1670   -0.6860    1.9470 n         1 MOL     -0.276875
     54 C17         3.9260   -1.9020    1.7680 c3        1 MOL     -0.116717
     55 C18         5.2410   -1.9670    2.6430 c         1 MOL      0.524100
     56 O9          5.4110   -1.1270    3.5320 o         1 MOL     -0.517969
     57 H25         3.6520   -0.0090    2.5180 hn        1 MOL      0.259338
     58 H26         4.0610   -2.1010    0.7030 h1        1 MOL      0.084141
     59 H27         3.2810   -2.7460    2.0140 h1        1 MOL      0.084141
     60 N6          6.2180   -2.8080    2.3810 n         1 MOL     -0.532533
     61 C19         6.2930   -3.6770    1.1450 c3        1 MOL      0.401637
     62 C20         6.8510   -2.9490   -0.0270 c         1 MOL      0.533419
     63 O10         7.7070   -2.0800    0.0980 o         1 MOL     -0.503462
     64 C21         6.9890   -4.9820    1.4700 c3        1 MOL     -0.270664
     65 C22         8.4020   -5.0510    2.1280 c         1 MOL      0.693581
     66 O11         8.9260   -4.0430    2.6000 o         1 MOL     -0.634138
     67 O12         9.1460   -6.0650    1.9890 o         1 MOL     -0.634138
     68 H28         7.1200   -2.6900    2.8140 hn        1 MOL      0.321675
     69 H29         5.2730   -3.9560    0.8780 h1        1 MOL     -0.093104
     70 H30         6.9920   -5.5640    0.5530 hc        1 MOL      0.018298
     71 H31         6.3370   -5.4970    2.1700 hc        1 MOL      0.018298
     72 N7          6.3370   -3.2040   -1.2380 n         1 MOL     -0.303336
     73 C23         6.6750   -2.6580   -2.6050 c3        1 MOL     -0.331525
     74 C24         6.0720   -1.3370   -2.9570 c         1 MOL      0.623342
     75 O13         6.2780   -0.8340   -4.0780 o         1 MOL     -0.589823
     76 H32         5.6960   -3.9960   -1.2270 hn        1 MOL      0.193545
     77 H33         6.2120   -3.3050   -3.3530 h1        1 MOL      0.158422
     78 H34         7.7420   -2.6060   -2.8170 h1        1 MOL      0.158422
     79 N8          5.3420   -0.6870   -2.0590 n         1 MOL     -0.326948
     80 C25         4.8610    0.6830   -2.2410 c3        1 MOL      0.025103
     81 C26         5.0860    1.5700   -0.9980 c         1 MOL      0.420745
     82 O14         4.8900    1.1390    0.1690 o         1 MOL     -0.474585
     83 C27         3.3130    0.6790   -2.4740 c3        1 MOL      0.472276
     84 C28         2.9250   -0.2230   -3.6340 c3        1 MOL     -0.235192
     85 O15         2.9550    1.9370   -2.8950 oh        1 MOL     -0.669112
     86 H35         4.9420   -1.2010   -1.2900 hn        1 MOL      0.126134
     87 H36         5.3900    1.1880   -3.0500 h1        1 MOL      0.111031
     88 H37         2.7170    0.4990   -1.5740 h1        1 MOL      0.033779
     89 H38         2.0510    2.0710   -2.5890 ho        1 MOL      0.392615
     90 H39         3.1870   -1.2780   -3.6200 hc        1 MOL      0.044059
     91 H40         1.8850   -0.1000   -3.9390 hc        1 MOL      0.044059
     92 H41         3.5070    0.1340   -4.4780 hc        1 MOL      0.044059
     93 N9          5.3710    2.8320   -1.2640 n         1 MOL     -0.455925
     94 C29         5.4260    3.9160   -0.2530 c3        1 MOL      0.075416
     95 C30         4.1000    4.7340   -0.1260 c         1 MOL      0.428670
     96 O16         3.9290    5.6470    0.7310 o         1 MOL     -0.507239
     97 C31         6.6750    4.8050   -0.6220 c3        1 MOL      0.139869
     98 C32         7.0920    5.8350    0.4910 c3        1 MOL     -0.070042
     99 C33         6.5560    5.7460   -1.8320 c3        1 MOL     -0.334789
    100 C34         7.1610    5.3900    1.9550 c3        1 MOL     -0.194387
    101 H42         5.5650    3.0250   -2.2370 hn        1 MOL      0.275267
    102 H43         5.6040    3.4720    0.7250 h1        1 MOL      0.110972
    103 H44         7.5030    4.0980   -0.7510 hc        1 MOL      0.026710
    104 H45         6.4160    6.6800    0.4830 hc        1 MOL      0.051967
    105 H46         8.1220    6.1440    0.2750 hc        1 MOL      0.051967
    106 H47         7.4840    6.2940   -1.9760 hc        1 MOL      0.077278
    107 H48         6.4200    5.1750   -2.7600 hc        1 MOL      0.077278
    108 H49         5.7400    6.4580   -1.7740 hc        1 MOL      0.077278
    109 H50         7.6240    4.4570    2.2450 hc        1 MOL      0.045888
    110 H51         7.6970    6.1760    2.4870 hc        1 MOL      0.045888
    111 H52         6.1270    5.2570    2.2770 hc        1 MOL      0.045888
    112 N10         3.1410    4.3390   -0.9950 n         1 MOL     -0.315602
    113 C35         1.8320    4.9980   -1.0380 c3        1 MOL      0.007827
    114 C36         0.7420    3.9090   -0.9960 c         1 MOL      0.404873
    115 O17         0.7350    3.1210   -1.9620 o         1 MOL     -0.493491
    116 C37         1.7340    5.7750   -2.3750 c3        1 MOL      0.573569
    117 C38         2.8170    6.7990   -2.6120 c3        1 MOL     -0.294668
    118 O18         0.4870    6.3460   -2.5830 oh        1 MOL     -0.690269
    119 H53         3.2280    3.4610   -1.4800 hn        1 MOL      0.183709
    120 H54         1.6000    5.6930   -0.2230 h1        1 MOL      0.065990
    121 H55         1.8910    5.0760   -3.1990 h1        1 MOL     -0.064051
    122 H56         0.3460    6.3380   -3.5340 ho        1 MOL      0.411162
    123 H57         2.8610    7.4250   -1.7170 hc        1 MOL      0.057775
    124 H58         3.7660    6.2870   -2.7890 hc        1 MOL      0.057775
    125 H59         2.5150    7.3440   -3.4980 hc        1 MOL      0.057775
    126 N11        -0.2310    3.8910   -0.0970 n         1 MOL     -0.283325
    127 C39        -1.3710    3.0070    0.0550 c3        1 MOL     -0.043421
    128 C40        -2.3420    2.9890   -1.1700 c         1 MOL      0.435636
    129 O19        -2.3420    3.8660   -2.0060 o         1 MOL     -0.487363
    130 C41        -2.1760    3.3040    1.3340 c3        1 MOL      0.182372
    131 C42        -2.6000    4.8040    1.4250 c3        1 MOL     -0.367184
    132 O20        -1.4180    3.0600    2.4090 oh        1 MOL     -0.572108
    133 H60        -0.1710    4.6270    0.5890 hn        1 MOL      0.272763
    134 H61        -1.0250    1.9820    0.2120 h1        1 MOL      0.127318
    135 H62        -2.9610    2.5440    1.3690 h1        1 MOL      0.088923
    136 H63        -1.8490    3.3640    3.2150 ho        1 MOL      0.400175
    137 H64        -3.2820    5.0300    0.6000 hc        1 MOL      0.102973
    138 H65        -3.1920    4.8260    2.3380 hc        1 MOL      0.102973
    139 H66        -1.6520    5.3390    1.4460 hc        1 MOL      0.102973
    140 N12        -3.1700    1.8870   -1.2130 n         1 MOL     -0.136812
    141 C43        -4.2470    1.6070   -2.2460 c3        1 MOL     -0.216678
    142 C44        -4.5720    0.0810   -2.4370 c         1 MOL      0.812159
    143 O21        -4.9480   -0.3280   -3.5470 o         1 MOL     -0.660436
    144 C45        -5.5270    2.4100   -1.8760 c3        1 MOL     -0.060205
    145 C46        -6.6050    2.3960   -3.0040 c3        1 MOL     -0.157482
    146 C47        -7.8450    3.1460   -2.5470 c3        1 MOL      0.086829
    147 C48        -8.7780    3.2940   -3.7500 c3        1 MOL      0.059444
    148 N13        -9.9580    4.1760   -3.4660 n4        1 MOL     -0.489069
    149 H67        -3.1430    1.2870   -0.4020 hn        1 MOL     -0.006231
    150 H68        -3.8130    1.9010   -3.2040 h1        1 MOL      0.121080
    151 H69        -5.3310    3.4730   -1.7180 hc        1 MOL      0.070641
    152 H70        -5.8220    1.9570   -0.9300 hc        1 MOL      0.070641
    153 H71        -6.7620    1.3760   -3.3480 hc        1 MOL      0.055228
    154 H72        -6.2850    3.0220   -3.8370 hc        1 MOL      0.055228
    155 H73        -7.5570    4.0840   -2.0700 hc        1 MOL      0.022036
    156 H74        -8.4250    2.6400   -1.7680 hc        1 MOL      0.022036
    157 H75        -9.2080    2.3380   -4.0590 hx        1 MOL      0.072421
    158 H76        -8.1110    3.6660   -4.5290 hx        1 MOL      0.072421
    159 H77        -9.7260    5.1510   -3.3390 hn        1 MOL      0.360798
    160 H78       -10.5220    4.0920   -4.3040 hn        1 MOL      0.360798
    161 H79       -10.3830    3.7570   -2.6520 hn        1 MOL      0.360798
    162 N14        -4.4200   -0.7870   -1.4140 n         1 MOL     -0.178106
    163 C49        -4.7420   -2.2310   -1.5020 c3        1 MOL     -0.557735
    164 C50        -6.2950   -2.5520   -1.4040 c         1 MOL      0.451694
    165 O22        -6.9880   -2.0260   -0.5280 o         1 MOL     -0.486139
    166 C51        -3.9360   -2.9050   -0.3660 c3        1 MOL      0.697394
    167 C52        -3.9920   -4.4260   -0.3890 c3        1 MOL     -0.689932
    168 C53        -3.5130   -5.0710   -1.7170 c         1 MOL      0.939309
    169 O23        -4.3680   -5.2960   -2.6620 o         1 MOL     -0.827002
    170 O24        -2.3130   -5.3370   -1.8350 o         1 MOL     -0.827002
    171 H80        -3.9150   -0.4870   -0.5930 hn        1 MOL      0.188453
    172 H81        -4.3600   -2.7230   -2.3940 h1        1 MOL      0.220399
    173 H82        -4.1000   -2.5450    0.6490 hc        1 MOL     -0.100959
    174 H83        -2.9040   -2.6710   -0.6070 hc        1 MOL     -0.100959
    175 H84        -4.9900   -4.7310   -0.0730 hc        1 MOL      0.153729
    176 H85        -3.3090   -4.7400    0.3900 hc        1 MOL      0.153729
    177 N15        -6.8470   -3.4880   -2.1850 n         1 MOL     -0.236022
    178 C54        -8.2700   -3.8950   -2.1930 c3        1 MOL     -0.286599
    179 H86        -8.8340   -3.2290   -2.8460 h1        1 MOL      0.116061
    180 H87        -8.3540   -4.9180   -2.5590 h1        1 MOL      0.116061
    181 H88        -8.6710   -3.8360   -1.1810 h1        1 MOL      0.116061
    182 H89        -6.2220   -3.8680   -2.8840 hn        1 MOL      0.349373
    183 Ca1         0.1080   -4.9200   -2.5260 Ca        1 MOL      1.724894
    184 O25        -1.2030   -3.0010   -4.0020 oh        1 MOL     -0.920224
    185 H90        -0.9510   -2.3150   -3.3670 ho        1 MOL      0.449426
    186 H91        -1.3440   -2.5210   -4.8180 ho        1 MOL      0.449426
    187 O26         0.7760   -6.3580   -4.7870 oh        1 MOL     -0.920224
    188 H92         0.9590   -6.3430   -5.7250 ho        1 MOL      0.449426
    189 H93         0.5310   -7.2630   -4.6060 ho        1 MOL      0.449426
    190 O27         1.8510   -3.4220   -4.0420 oh        1 MOL     -0.920224
    191 H94         1.9560   -2.5410   -4.3950 ho        1 MOL      0.449426
    192 H95         2.4780   -3.9490   -4.5370 ho        1 MOL      0.449426
@<TRIPOS>BOND
     1    1    2 1   
     2    1    4 1   
     3    1    5 1   
     4    1    6 1   
     5    2    3 2   
     6    2    7 1   
     7    7    8 1   
     8    7   15 1   
     9    8    9 1   
    10    8   11 1   
    11    8   16 1   
    12    9   10 2   
    13    9   19 1   
    14   11   12 1   
    15   11   17 1   
    16   11   18 1   
    17   12   13 1   
    18   12   14 1   
    19   19   20 1   
    20   19   28 1   
    21   20   21 1   
    22   20   23 1   
    23   20   29 1   
    24   21   22 2   
    25   21   41 1   
    26   23   24 1   
    27   23   30 1   
    28   23   31 1   
    29   24   25 1   
    30   24   32 1   
    31   24   33 1   
    32   25   26 1   
    33   25   34 1   
    34   25   35 1   
    35   26   27 1   
    36   26   36 1   
    37   26   37 1   
    38   27   38 1   
    39   27   39 1   
    40   27   40 1   
    41   41   42 1   
    42   41   49 1   
    43   42   43 1   
    44   42   45 1   
    45   42   50 1   
    46   43   44 2   
    47   43   53 1   
    48   45   46 1   
    49   45   51 1   
    50   45   52 1   
    51   46   47 1   
    52   46   48 1   
    53   53   54 1   
    54   53   57 1   
    55   54   55 1   
    56   54   58 1   
    57   54   59 1   
    58   55   56 2   
    59   55   60 1   
    60   60   61 1   
    61   60   68 1   
    62   61   62 1   
    63   61   64 1   
    64   61   69 1   
    65   62   63 2   
    66   62   72 1   
    67   64   65 1   
    68   64   70 1   
    69   64   71 1   
    70   65   66 1   
    71   65   67 1   
    72   72   73 1   
    73   72   76 1   
    74   73   74 1   
    75   73   77 1   
    76   73   78 1   
    77   74   75 2   
    78   74   79 1   
    79   79   80 1   
    80   79   86 1   
    81   80   81 1   
    82   80   83 1   
    83   80   87 1   
    84   81   82 2   
    85   81   93 1   
    86   83   84 1   
    87   83   85 1   
    88   83   88 1   
    89   84   90 1   
    90   84   91 1   
    91   84   92 1   
    92   85   89 1   
    93   93   94 1   
    94   93  101 1   
    95   94   95 1   
    96   94   97 1   
    97   94  102 1   
    98   95   96 2   
    99   95  112 1   
   100   97   98 1   
   101   97   99 1   
   102   97  103 1   
   103   98  100 1   
   104   98  104 1   
   105   98  105 1   
   106   99  106 1   
   107   99  107 1   
   108   99  108 1   
   109  100  109 1   
   110  100  110 1   
   111  100  111 1   
   112  112  113 1   
   113  112  119 1   
   114  113  114 1   
   115  113  116 1   
   116  113  120 1   
   117  114  115 2   
   118  114  126 1   
   119  116  117 1   
   120  116  118 1   
   121  116  121 1   
   122  117  123 1   
   123  117  124 1   
   124  117  125 1   
   125  118  122 1   
   126  126  127 1   
   127  126  133 1   
   128  127  128 1   
   129  127  130 1   
   130  127  134 1   
   131  128  129 2   
   132  128  140 1   
   133  130  131 1   
   134  130  132 1   
   135  130  135 1   
   136  131  137 1   
   137  131  138 1   
   138  131  139 1   
   139  132  136 1   
   140  140  141 1   
   141  140  149 1   
   142  141  142 1   
   143  141  144 1   
   144  141  150 1   
   145  142  143 2   
   146  142  162 1   
   147  144  145 1   
   148  144  151 1   
   149  144  152 1   
   150  145  146 1   
   151  145  153 1   
   152  145  154 1   
   153  146  147 1   
   154  146  155 1   
   155  146  156 1   
   156  147  148 1   
   157  147  157 1   
   158  147  158 1   
   159  148  159 1   
   160  148  160 1   
   161  148  161 1   
   162  162  163 1   
   163  162  171 1   
   164  163  164 1   
   165  163  166 1   
   166  163  172 1   
   167  164  165 2   
   168  164  177 1   
   169  166  167 1   
   170  166  173 1   
   171  166  174 1   
   172  167  168 1   
   173  167  175 1   
   174  167  176 1   
   175  168  169 1   
   176  168  170 1   
   177  177  178 1   
   178  177  182 1   
   179  178  179 1   
   180  178  180 1   
   181  178  181 1   
   182  184  185 1   
   183  184  186 1   
   184  187  188 1   
   185  187  189 1   
   186  190  191 1   
   187  190  192 1   
@<TRIPOS>SUBSTRUCTURE
     1 MOL         1 TEMP              0 ****  ****    0 ROOT
