@<TRIPOS>MOLECULE
MOL
  181   177     1     0     0
SMALL
resp


@<TRIPOS>ATOM
      1 C1          3.2180   -4.7750    3.4310 c3        1 MOL     -0.396210
      2 C2          4.6190   -4.9660    2.8600 c         1 MOL      0.758233
      3 O1          4.7470   -5.8000    1.9840 o         1 MOL     -0.594975
      4 H1          2.5380   -5.4910    2.9690 hc        1 MOL      0.091214
      5 H2          3.2400   -4.9380    4.5090 hc        1 MOL      0.091214
      6 H3          2.8750   -3.7620    3.2240 hc        1 MOL      0.091214
      7 N1          5.6050   -4.1340    3.2500 n         1 MOL     -0.641216
      8 C3          6.9670   -4.2240    2.8000 c3        1 MOL      0.132128
      9 C4          7.0990   -3.4960    1.4360 c         1 MOL      0.588941
     10 O2          7.8610   -2.5130    1.3120 o         1 MOL     -0.495526
     11 C5          7.9570   -3.6670    3.8710 c3        1 MOL     -0.187160
     12 C6          9.3360   -3.8140    3.3680 c         1 MOL      0.684430
     13 O3          9.7430   -4.9090    2.8040 o         1 MOL     -0.726128
     14 O4         10.0900   -2.8230    3.5470 o         1 MOL     -0.726128
     15 H4          5.4360   -3.4280    3.9480 hn        1 MOL      0.322775
     16 H5          7.1570   -5.2880    2.6280 h1        1 MOL      0.033586
     17 H6          7.8210   -4.1590    4.8420 hc        1 MOL      0.024984
     18 H7          7.6580   -2.6430    4.0980 hc        1 MOL      0.024984
     19 N2          6.3620   -3.9150    0.4320 n         1 MOL     -0.596991
     20 C7          6.3280   -3.3240   -0.9400 c3        1 MOL      0.241187
     21 C8          5.1620   -3.8940   -1.7260 c         1 MOL      0.447304
     22 O5          4.8160   -5.0290   -1.5170 o         1 MOL     -0.528824
     23 C9          7.6520   -3.6110   -1.6970 c3        1 MOL     -0.242551
     24 H8          5.7980   -4.7330    0.5730 hn        1 MOL      0.335647
     25 H9          6.2570   -2.2410   -0.8700 h1        1 MOL      0.056968
     26 H10         7.6170   -3.2830   -2.7350 hc        1 MOL      0.065809
     27 H11         8.4480   -3.1110   -1.1400 hc        1 MOL      0.065809
     28 H12         7.8900   -4.6720   -1.6130 hc        1 MOL      0.065809
     29 N3          4.4050   -3.1870   -2.5980 n         1 MOL     -0.260891
     30 C10         4.7330   -1.9530   -3.3050 c3        1 MOL     -0.142536
     31 C11         4.6430   -0.5910   -2.4590 c         1 MOL      0.467382
     32 O6          4.2370   -0.6150   -1.2970 o         1 MOL     -0.494521
     33 C12         3.6800   -1.7710   -4.4710 c3        1 MOL     -0.110670
     34 C13         2.1500   -1.8390   -4.0960 c         1 MOL      0.630979
     35 O7          1.6040   -2.8250   -3.4990 o         1 MOL     -0.697408
     36 O8          1.4770   -0.8430   -4.3520 o         1 MOL     -0.697408
     37 H13         3.6270   -3.7450   -2.9270 hn        1 MOL      0.235217
     38 H14         5.6860   -2.0210   -3.8260 h1        1 MOL      0.104830
     39 H15         3.8390   -2.5740   -5.1840 hc        1 MOL      0.029719
     40 H16         3.9740   -0.8350   -4.9370 hc        1 MOL      0.029719
     41 N4          4.9150    0.5920   -3.1050 n         1 MOL     -0.423344
     42 C14         5.2360    1.8140   -2.3390 c3        1 MOL     -0.185505
     43 C15         6.5110    1.6680   -1.4920 c         1 MOL      0.687440
     44 O9          7.3910    0.8080   -1.6770 o         1 MOL     -0.539580
     45 H17         5.1940    0.5050   -4.0680 hn        1 MOL      0.305766
     46 H18         4.3860    1.9410   -1.6770 h1        1 MOL      0.163274
     47 H19         5.3340    2.6560   -3.0150 h1        1 MOL      0.163274
     48 N5          6.7000    2.6370   -0.5600 n         1 MOL     -0.569325
     49 C16         5.9720    3.8920   -0.4140 c3        1 MOL      0.057970
     50 C17         5.6040    4.2530    1.0150 c         1 MOL      0.668758
     51 O10         6.3560    3.9450    1.9310 o         1 MOL     -0.531617
     52 C18         6.8180    5.0250   -1.0220 c3        1 MOL     -0.298391
     53 C19         6.1140    6.3170   -1.1270 c         1 MOL      0.661097
     54 N6          6.5060    7.3630   -0.4620 n         1 MOL     -0.755348
     55 O11         5.1450    6.3950   -1.8520 o         1 MOL     -0.579126
     56 H20         7.4250    2.5510    0.1320 hn        1 MOL      0.344397
     57 H21         5.0100    3.8140   -0.9280 h1        1 MOL     -0.021060
     58 H22         7.1200    4.7980   -2.0500 hc        1 MOL      0.097611
     59 H23         7.6740    5.1990   -0.3690 hc        1 MOL      0.097611
     60 H24         7.3790    7.3870    0.0390 hn        1 MOL      0.356130
     61 H25         6.0090    8.2120   -0.6790 hn        1 MOL      0.356130
     62 N7          4.4520    4.9260    1.1490 n         1 MOL     -0.499336
     63 C20         4.0040    5.4560    2.4460 c3        1 MOL     -0.129839
     64 C21         2.5200    5.7720    2.6150 c         1 MOL      0.599259
     65 O12         2.1690    6.1810    3.6980 o         1 MOL     -0.555432
     66 H26         4.1270    5.2780    0.2610 hn        1 MOL      0.348764
     67 H27         4.5470    6.3570    2.7130 h1        1 MOL      0.106061
     68 H28         4.3420    4.7070    3.1610 h1        1 MOL      0.106061
     69 N8          1.6460    5.5340    1.6060 n         1 MOL     -0.427360
     70 C22         0.1790    5.7540    1.5440 c3        1 MOL      0.218902
     71 C23        -0.6200    4.5170    1.3750 c         1 MOL      0.384159
     72 O13        -0.1870    3.4220    1.1770 o         1 MOL     -0.488567
     73 C24        -0.0860    6.6500    0.3100 c3        1 MOL      0.225143
     74 C25         0.7170    7.9950    0.2820 c3        1 MOL     -0.246452
     75 O14         0.3670    5.9810   -0.8480 oh        1 MOL     -0.563195
     76 H29         1.9900    5.0170    0.8080 hn        1 MOL      0.244816
     77 H30        -0.2240    6.2730    2.4130 h1        1 MOL      0.018708
     78 H31        -1.1470    6.8580    0.3010 h1        1 MOL      0.013473
     79 H32        -0.0170    6.5140   -1.5510 ho        1 MOL      0.391951
     80 H33         0.4820    8.4430    1.2530 hc        1 MOL      0.048300
     81 H34         1.7840    7.7940    0.1970 hc        1 MOL      0.048300
     82 H35         0.3920    8.7190   -0.4690 hc        1 MOL      0.048300
     83 N9         -1.9250    4.6870    1.3310 n         1 MOL     -0.231647
     84 C26        -2.9690    3.6600    1.2520 c3        1 MOL     -0.021491
     85 C27        -3.5220    3.5900   -0.1860 c         1 MOL      0.371424
     86 O15        -3.9480    4.7020   -0.6530 o         1 MOL     -0.582693
     87 C28        -3.9560    3.7000    2.5070 c3        1 MOL      0.138168
     88 C29        -4.8390    2.4640    2.4880 c3        1 MOL     -0.023248
     89 C30        -3.0790    3.8950    3.7690 c3        1 MOL     -0.379626
     90 C31        -6.0960    2.6390    3.3450 c3        1 MOL     -0.203190
     91 H36        -2.3100    5.6090    1.3180 hn        1 MOL      0.189087
     92 H37        -2.4940    2.6760    1.3060 h1        1 MOL      0.104189
     93 H38        -4.4870    4.6280    2.2870 hc        1 MOL      0.011502
     94 H39        -4.2990    1.5850    2.8370 hc        1 MOL      0.021794
     95 H40        -5.1760    2.1040    1.5190 hc        1 MOL      0.021794
     96 H41        -2.2650    3.1630    3.7410 hc        1 MOL      0.095568
     97 H42        -2.7150    4.9130    3.9190 hc        1 MOL      0.095568
     98 H43        -3.7260    3.7460    4.6280 hc        1 MOL      0.095568
     99 H44        -5.8860    2.9180    4.3780 hc        1 MOL      0.045555
    100 H45        -6.6500    3.4900    2.9460 hc        1 MOL      0.045555
    101 H46        -6.7430    1.7670    3.2510 hc        1 MOL      0.045555
    102 N10        -3.4940    2.4640   -0.9100 n         1 MOL     -0.165738
    103 C32        -4.0190    2.3810   -2.3070 c3        1 MOL     -0.103396
    104 C33        -5.2620    1.3980   -2.2880 c         1 MOL      0.443165
    105 O16        -5.9380    1.3880   -3.3480 o         1 MOL     -0.555786
    106 C34        -2.9350    1.9710   -3.3210 c3        1 MOL      0.027676
    107 C35        -2.1730    0.7180   -2.9760 c         1 MOL      0.496582
    108 O17        -1.2210    0.7470   -2.1750 o         1 MOL     -0.649476
    109 O18        -2.5950   -0.3210   -3.5100 o         1 MOL     -0.649476
    110 H47        -3.2140    1.5640   -0.5530 hn        1 MOL      0.165933
    111 H48        -4.3790    3.3710   -2.5680 h1        1 MOL      0.121174
    112 H49        -2.2840    2.8310   -3.5070 hc        1 MOL      0.021859
    113 H50        -3.3750    1.9420   -4.3200 hc        1 MOL      0.021859
    114 N11        -5.6300    0.7220   -1.2180 n         1 MOL     -0.433920
    115 C36        -6.8190   -0.0770   -0.9860 c3        1 MOL      0.451070
    116 C37        -6.5430   -1.4090   -0.2650 c         1 MOL      0.175796
    117 O19        -7.0520   -1.6490    0.8430 o         1 MOL     -0.445298
    118 C38        -7.6870    0.7370   -0.1600 c3        1 MOL     -0.339476
    119 C39        -9.0930    0.2480    0.0390 ca        1 MOL      0.086553
    120 C40        -9.8920   -0.2340   -1.0370 ca        1 MOL     -0.059446
    121 C41        -9.6210    0.1830    1.3530 ca        1 MOL     -0.059446
    122 C42       -11.1850   -0.6950   -0.7560 ca        1 MOL     -0.251965
    123 C43       -10.9860   -0.2540    1.6070 ca        1 MOL     -0.251965
    124 C44       -11.6880   -0.7860    0.5410 ca        1 MOL      0.001175
    125 H51        -4.8910    0.6020   -0.5250 hn        1 MOL      0.373329
    126 H52        -7.2840   -0.1780   -1.9650 h1        1 MOL      0.002259
    127 H53        -7.8440    1.6990   -0.6490 hc        1 MOL      0.096593
    128 H54        -7.2110    1.0450    0.7710 hc        1 MOL      0.096593
    129 H55        -9.4460   -0.2930   -2.0190 ha        1 MOL      0.091631
    130 H56        -8.9860    0.4540    2.1820 ha        1 MOL      0.091631
    131 H57       -11.8080   -1.2010   -1.4830 ha        1 MOL      0.126665
    132 H58       -11.3120   -0.4850    2.6080 ha        1 MOL      0.126665
    133 H59       -12.5890   -1.3660    0.6380 ha        1 MOL      0.068679
    134 N12        -5.7620   -2.3300   -0.8610 n         1 MOL     -0.108072
    135 C45        -5.5050   -3.6350   -0.2810 c3        1 MOL     -0.003086
    136 C46        -4.8390   -3.7090    1.1190 c         1 MOL      0.389155
    137 O20        -4.9110   -4.7290    1.7660 o         1 MOL     -0.544224
    138 C47        -4.5560   -4.3500   -1.2430 c3        1 MOL     -0.010259
    139 C48        -4.8810   -3.7120   -2.5910 c3        1 MOL     -0.164370
    140 C49        -5.1880   -2.2410   -2.2100 c3        1 MOL      0.041059
    141 H60        -6.4920   -4.0930   -0.2340 h1        1 MOL      0.084249
    142 H61        -3.5180   -4.1830   -0.9530 hc        1 MOL      0.022918
    143 H62        -4.8230   -5.4050   -1.3550 hc        1 MOL      0.022918
    144 H63        -4.0310   -3.6780   -3.2780 hc        1 MOL      0.048297
    145 H64        -5.7330   -4.2570   -3.0060 hc        1 MOL      0.048297
    146 H65        -4.2440   -1.6970   -2.1210 h1        1 MOL      0.049410
    147 H66        -5.7920   -1.6820   -2.9150 h1        1 MOL      0.049410
    148 N13        -4.0720   -2.6840    1.5470 n         1 MOL     -0.016340
    149 C50        -3.0990   -2.6650    2.6280 c3        1 MOL     -0.214746
    150 C51        -3.5680   -3.0740    4.0650 c         1 MOL      0.401542
    151 O21        -2.7110   -3.4850    4.8480 o         1 MOL     -0.533507
    152 C52        -2.5040   -1.2350    2.6490 c3        1 MOL     -0.155049
    153 C53        -1.5500   -0.8050    1.5490 c3        1 MOL     -0.112859
    154 C54        -2.2350   -0.8920    0.2120 c         1 MOL      0.692640
    155 O22        -1.9550   -1.8200   -0.5760 o         1 MOL     -0.697013
    156 O23        -3.2360   -0.1050    0.0860 o         1 MOL     -0.697013
    157 H67        -4.0900   -1.8440    0.9780 hn        1 MOL      0.140293
    158 H68        -2.3000   -3.3900    2.4970 h1        1 MOL      0.151117
    159 H69        -1.9050   -1.0880    3.5580 hc        1 MOL      0.075611
    160 H70        -3.3570   -0.5650    2.7770 hc        1 MOL      0.075611
    161 H71        -0.6960   -1.4940    1.5640 hc        1 MOL      0.067803
    162 H72        -1.1810    0.1860    1.7910 hc        1 MOL      0.067803
    163 N14        -4.8610   -3.2200    4.3340 n         1 MOL     -0.056248
    164 C55        -5.4930   -3.6430    5.6100 c3        1 MOL     -0.261101
    165 H73        -5.3660   -2.8570    6.3560 h1        1 MOL      0.105791
    166 H74        -6.5560   -3.8200    5.4480 h1        1 MOL      0.105791
    167 H75        -5.0210   -4.5590    5.9650 h1        1 MOL      0.105791
    168 H76        -5.3730   -2.9620    3.5070 hn        1 MOL      0.134550
    169 Ca1        -0.5540   -1.7740   -2.6420 Ca        1 MOL      1.734798
    170 O24         0.5630   -3.6910   -0.9370 oh        1 MOL     -0.823608
    171 H77         0.0470   -4.1240   -0.2570 ho        1 MOL      0.407927
    172 H78         1.1880   -4.3640   -1.2210 ho        1 MOL      0.407927
    173 O25        -1.3900   -2.3550   -5.1430 oh        1 MOL     -0.823608
    174 H79        -1.7200   -1.8250   -5.8770 ho        1 MOL      0.407927
    175 H80        -0.8920   -3.0550   -5.5590 ho        1 MOL      0.407927
    176 O26        -1.2470   -4.3420   -2.9810 oh        1 MOL     -0.823608
    177 H81        -1.3460   -4.9400   -2.2420 ho        1 MOL      0.407927
    178 H82        -1.7780   -4.7370   -3.6810 ho        1 MOL      0.407927
    179 O27         1.5000   -0.7210   -1.2980 oh        1 MOL     -0.823608
    180 H83         1.6410   -0.0050   -0.6780 ho        1 MOL      0.407927
    181 H84         2.3750   -1.0070   -1.5530 ho        1 MOL      0.407927
@<TRIPOS>BOND
     1    1    2 1   
     2    1    4 1   
     3    1    5 1   
     4    1    6 1   
     5    2    3 2   
     6    2    7 1   
     7    7    8 1   
     8    7   15 1   
     9    8    9 1   
    10    8   11 1   
    11    8   16 1   
    12    9   10 2   
    13    9   19 1   
    14   11   12 1   
    15   11   17 1   
    16   11   18 1   
    17   12   13 1   
    18   12   14 1   
    19   19   20 1   
    20   19   24 1   
    21   20   21 1   
    22   20   23 1   
    23   20   25 1   
    24   21   22 2   
    25   21   29 1   
    26   23   26 1   
    27   23   27 1   
    28   23   28 1   
    29   29   30 1   
    30   29   37 1   
    31   30   31 1   
    32   30   33 1   
    33   30   38 1   
    34   31   32 2   
    35   31   41 1   
    36   33   34 1   
    37   33   39 1   
    38   33   40 1   
    39   34   35 1   
    40   34   36 1   
    41   41   42 1   
    42   41   45 1   
    43   42   43 1   
    44   42   46 1   
    45   42   47 1   
    46   43   44 2   
    47   43   48 1   
    48   48   49 1   
    49   48   56 1   
    50   49   50 1   
    51   49   52 1   
    52   49   57 1   
    53   50   51 2   
    54   50   62 1   
    55   52   53 1   
    56   52   58 1   
    57   52   59 1   
    58   53   54 1   
    59   53   55 2   
    60   54   60 1   
    61   54   61 1   
    62   62   63 1   
    63   62   66 1   
    64   63   64 1   
    65   63   67 1   
    66   63   68 1   
    67   64   65 2   
    68   64   69 1   
    69   69   70 1   
    70   69   76 1   
    71   70   71 1   
    72   70   73 1   
    73   70   77 1   
    74   71   72 2   
    75   71   83 1   
    76   73   74 1   
    77   73   75 1   
    78   73   78 1   
    79   74   80 1   
    80   74   81 1   
    81   74   82 1   
    82   75   79 1   
    83   83   84 1   
    84   83   91 1   
    85   84   85 1   
    86   84   87 1   
    87   84   92 1   
    88   85   86 2   
    89   85  102 1   
    90   87   88 1   
    91   87   89 1   
    92   87   93 1   
    93   88   90 1   
    94   88   94 1   
    95   88   95 1   
    96   89   96 1   
    97   89   97 1   
    98   89   98 1   
    99   90   99 1   
   100   90  100 1   
   101   90  101 1   
   102  102  103 1   
   103  102  110 1   
   104  103  104 1   
   105  103  106 1   
   106  103  111 1   
   107  104  105 2   
   108  104  114 1   
   109  106  107 1   
   110  106  112 1   
   111  106  113 1   
   112  107  108 1   
   113  107  109 1   
   114  114  115 1   
   115  114  125 1   
   116  115  116 1   
   117  115  118 1   
   118  115  126 1   
   119  116  117 2   
   120  116  134 1   
   121  118  119 1   
   122  118  127 1   
   123  118  128 1   
   124  119  120 ar  
   125  119  121 ar  
   126  120  122 ar  
   127  120  129 1   
   128  121  123 ar  
   129  121  130 1   
   130  122  124 ar  
   131  122  131 1   
   132  123  124 ar  
   133  123  132 1   
   134  124  133 1   
   135  134  135 1   
   136  134  140 1   
   137  135  136 1   
   138  135  138 1   
   139  135  141 1   
   140  136  137 2   
   141  136  148 1   
   142  138  139 1   
   143  138  142 1   
   144  138  143 1   
   145  139  140 1   
   146  139  144 1   
   147  139  145 1   
   148  140  146 1   
   149  140  147 1   
   150  148  149 1   
   151  148  157 1   
   152  149  150 1   
   153  149  152 1   
   154  149  158 1   
   155  150  151 2   
   156  150  163 1   
   157  152  153 1   
   158  152  159 1   
   159  152  160 1   
   160  153  154 1   
   161  153  161 1   
   162  153  162 1   
   163  154  155 1   
   164  154  156 1   
   165  163  164 1   
   166  163  168 1   
   167  164  165 1   
   168  164  166 1   
   169  164  167 1   
   170  170  171 1   
   171  170  172 1   
   172  173  174 1   
   173  173  175 1   
   174  176  177 1   
   175  176  178 1   
   176  179  180 1   
   177  179  181 1   
@<TRIPOS>SUBSTRUCTURE
     1 MOL         1 TEMP              0 ****  ****    0 ROOT
