@<TRIPOS>MOLECULE
MOL
  188   182     1     0     0
SMALL
resp


@<TRIPOS>ATOM
      1 C1         -5.1590    1.3540   -2.7680 c3        1 MOL     -0.403832
      2 C2         -6.1610    1.3750   -1.6230 c         1 MOL      0.535785
      3 O1         -5.8870    0.9770   -0.4670 o         1 MOL     -0.384671
      4 H1         -4.2040    0.9720   -2.4070 hc        1 MOL      0.110591
      5 H2         -5.5310    0.7100   -3.5650 hc        1 MOL      0.110591
      6 H3         -5.0230    2.3660   -3.1510 hc        1 MOL      0.110591
      7 N1         -7.4270    1.8140   -1.9020 n         1 MOL     -0.498513
      8 C3         -8.6430    1.7820   -1.0270 c3        1 MOL      0.052035
      9 C4         -8.8640    0.4790   -0.2650 c         1 MOL      0.210557
     10 O2         -8.8930    0.4080    0.9820 o         1 MOL     -0.400884
     11 C5         -8.6400    3.0800   -0.2230 c3        1 MOL     -0.309734
     12 C6         -9.8240    3.3340    0.7390 c         1 MOL      0.739981
     13 O3         -9.6260    3.9390    1.8270 o         1 MOL     -0.658135
     14 O4        -10.9850    3.3020    0.3100 o         1 MOL     -0.658135
     15 H4         -7.5540    2.1340   -2.8560 hn        1 MOL      0.301927
     16 H5         -9.4080    1.7270   -1.8090 h1        1 MOL      0.065188
     17 H6         -8.6720    3.8710   -0.9620 hc        1 MOL      0.110963
     18 H7         -7.7150    3.1480    0.3460 hc        1 MOL      0.110963
     19 N2         -8.7020   -0.6530   -0.9860 n         1 MOL     -0.154204
     20 C7         -8.8030   -2.0420   -0.5100 c3        1 MOL     -0.008449
     21 C8         -7.4210   -2.7380   -0.4420 c         1 MOL      0.527885
     22 O5         -7.2770   -3.9300   -0.3250 o         1 MOL     -0.546801
     23 C9         -9.6910   -2.6910   -1.5440 c3        1 MOL     -0.048458
     24 C10       -11.1520   -2.1240   -1.4460 c3        1 MOL      0.281610
     25 C11       -12.1410   -2.9820   -2.2480 c3        1 MOL     -0.180115
     26 C12       -13.5820   -2.7490   -1.7870 c3        1 MOL     -0.027580
     27 N3        -13.8500   -3.3650   -0.4890 n4        1 MOL     -0.294824
     28 H8         -8.5590   -0.4250   -1.9660 hn        1 MOL      0.199060
     29 H9         -9.3290   -2.0460    0.4370 h1        1 MOL      0.109171
     30 H10        -9.7000   -3.7620   -1.3130 hc        1 MOL     -0.000869
     31 H11        -9.2920   -2.5040   -2.5410 hc        1 MOL     -0.000869
     32 H12       -11.1480   -1.0890   -1.8030 hc        1 MOL     -0.044786
     33 H13       -11.4190   -2.2150   -0.3940 hc        1 MOL     -0.044786
     34 H14       -11.8830   -4.0110   -1.9870 hc        1 MOL      0.061476
     35 H15       -12.0270   -2.7530   -3.3100 hc        1 MOL      0.061476
     36 H16       -14.1850   -3.2280   -2.5630 hx        1 MOL      0.103476
     37 H17       -13.9510   -1.7230   -1.8560 hx        1 MOL      0.103476
     38 H18       -13.0390   -3.2610    0.1110 hn        1 MOL      0.264322
     39 H19       -14.6770   -3.1510    0.0510 hn        1 MOL      0.264322
     40 H20       -13.9360   -4.3520   -0.6730 hn        1 MOL      0.264322
     41 N4         -6.2650   -2.0010   -0.5300 n         1 MOL     -0.342717
     42 C13        -4.9430   -2.5050   -0.1440 c3        1 MOL     -0.080778
     43 C14        -4.7430   -2.7770    1.3210 c         1 MOL      0.563982
     44 O6         -5.2870   -2.0680    2.2080 o         1 MOL     -0.505064
     45 C15        -4.0140   -1.4740   -0.7550 c3        1 MOL      0.006745
     46 C16        -2.5020   -1.7440   -0.6660 c         1 MOL      0.701786
     47 O7         -1.9310   -2.3110   -1.6210 o         1 MOL     -0.780632
     48 O8         -1.7870   -1.4910    0.3100 o         1 MOL     -0.780632
     49 H21        -6.3540   -1.0510   -0.8620 hn        1 MOL      0.174103
     50 H22        -4.7030   -3.4190   -0.6820 h1        1 MOL      0.068884
     51 H23        -4.1510   -0.4810   -0.3320 hc        1 MOL      0.028624
     52 H24        -4.2380   -1.3900   -1.8170 hc        1 MOL      0.028624
     53 N5         -3.7950   -3.6740    1.6630 n         1 MOL     -0.414376
     54 C17        -3.5320   -3.9710    3.0740 c3        1 MOL     -0.063997
     55 C18        -2.5380   -3.0480    3.7920 c         1 MOL      0.526592
     56 O9         -2.4060   -3.3340    5.0140 o         1 MOL     -0.586497
     57 H25        -3.3080   -4.2180    0.9660 hn        1 MOL      0.284549
     58 H26        -3.0860   -4.9610    3.0860 h1        1 MOL      0.081225
     59 H27        -4.4520   -4.1430    3.6270 h1        1 MOL      0.081225
     60 N6         -1.9650   -2.0780    3.1950 n         1 MOL     -0.203449
     61 C19        -1.3750   -1.0440    3.9940 c3        1 MOL     -0.203314
     62 C20        -1.4390    0.3970    3.4430 c         1 MOL      0.590323
     63 O10        -1.1660    1.3970    4.1180 o         1 MOL     -0.551536
     64 C21         0.0850   -1.4030    4.3740 c3        1 MOL     -0.159247
     65 C22         0.9580   -1.4470    3.1290 c         1 MOL      0.566984
     66 N7          2.2820   -1.3260    3.3090 n         1 MOL     -0.700372
     67 O11         0.5680   -1.7210    2.0420 o         1 MOL     -0.514145
     68 H28        -1.8650   -2.0250    2.1880 hn        1 MOL      0.201340
     69 H29        -2.0050   -1.0080    4.8800 h1        1 MOL      0.165916
     70 H30         0.1690   -2.4100    4.7790 hc        1 MOL      0.081067
     71 H31         0.4940   -0.6710    5.0750 hc        1 MOL      0.081067
     72 H32         2.5250   -1.1800    4.2850 hn        1 MOL      0.324321
     73 H33         2.8850   -1.2870    2.5000 hn        1 MOL      0.324321
     74 N8         -1.8270    0.6270    2.1640 n         1 MOL     -0.455066
     75 C23        -1.7910    1.9610    1.5450 c3        1 MOL     -0.013742
     76 C24        -0.3620    2.3770    1.1600 c         1 MOL      0.762160
     77 O12         0.6260    1.7940    1.6140 o         1 MOL     -0.555033
     78 H34        -1.9200   -0.1610    1.5430 hn        1 MOL      0.314718
     79 H35        -2.0940    2.7880    2.1900 h1        1 MOL      0.068132
     80 H36        -2.4930    1.8810    0.7080 h1        1 MOL      0.068132
     81 N9         -0.2450    3.4000    0.2770 n         1 MOL     -0.782079
     82 C25         0.9950    4.0080   -0.1400 c3        1 MOL      0.392286
     83 C26         1.9130    3.0500   -0.9080 c         1 MOL      0.436379
     84 O13         1.4680    2.1730   -1.6530 o         1 MOL     -0.550335
     85 C27         0.8220    5.2250   -1.0880 c3        1 MOL     -0.054234
     86 C28        -0.2270    6.2120   -0.8800 ca        1 MOL      0.075599
     87 C29        -1.1400    6.5680   -1.8990 ca        1 MOL     -0.233555
     88 C30        -0.3880    6.7830    0.4110 ca        1 MOL     -0.233555
     89 C31        -2.2130    7.4790   -1.5950 ca        1 MOL     -0.169690
     90 C32        -1.4410    7.7040    0.6530 ca        1 MOL     -0.169690
     91 C33        -2.3720    8.1390   -0.3220 ca        1 MOL      0.251994
     92 O14        -3.4420    8.9050   -0.0290 oh        1 MOL     -0.451158
     93 H37        -1.0860    3.9070    0.0350 hn        1 MOL      0.342189
     94 H38         1.5120    4.3300    0.7670 h1        1 MOL     -0.016823
     95 H39         0.9230    4.8560   -2.1140 hc        1 MOL      0.026154
     96 H40         1.7360    5.7420   -0.8330 hc        1 MOL      0.026154
     97 H41        -1.0640    6.1250   -2.8700 ha        1 MOL      0.150140
     98 H42         0.1740    6.3290    1.2070 ha        1 MOL      0.150140
     99 H43        -2.8800    7.6610   -2.4210 ha        1 MOL      0.134494
    100 H44        -1.4850    8.0090    1.6820 ha        1 MOL      0.134494
    101 H45        -3.4190    9.2590    0.8600 ho        1 MOL      0.384757
    102 N10         3.1740    3.1980   -0.7140 n         1 MOL     -0.458232
    103 C34         4.2690    2.4930   -1.3750 c3        1 MOL      0.017349
    104 C35         5.1320    1.9230   -0.2330 c         1 MOL      0.410301
    105 O15         5.1570    0.7110   -0.1560 o         1 MOL     -0.444073
    106 C36         5.0110    3.4010   -2.3630 c3        1 MOL      0.076036
    107 C37         4.0960    3.9880   -3.4490 c3        1 MOL      0.054846
    108 C38         6.1590    2.6640   -3.1080 c3        1 MOL     -0.374399
    109 C39         3.3720    2.9900   -4.4100 c3        1 MOL     -0.064960
    110 H46         3.4390    3.9750   -0.1280 hn        1 MOL      0.236885
    111 H47         3.8330    1.7220   -2.0080 h1        1 MOL      0.151497
    112 H48         5.3380    4.2550   -1.7800 hc        1 MOL     -0.004219
    113 H49         4.6500    4.7370   -4.0120 hc        1 MOL     -0.011314
    114 H50         3.3160    4.5510   -2.9260 hc        1 MOL     -0.011314
    115 H51         7.0670    2.6020   -2.5140 hc        1 MOL      0.102066
    116 H52         5.8630    1.6790   -3.4910 hc        1 MOL      0.102066
    117 H53         6.4570    3.2680   -3.9650 hc        1 MOL      0.102066
    118 H54         4.0310    2.7500   -5.2550 hc        1 MOL      0.026854
    119 H55         2.9440    2.0860   -3.9670 hc        1 MOL      0.026854
    120 H56         2.4530    3.3770   -4.8550 hc        1 MOL      0.026854
    121 N11         5.6790    2.7870    0.6080 n         1 MOL     -0.323392
    122 C40         6.3120    2.4110    1.8600 c3        1 MOL     -0.191870
    123 C41         7.8190    1.8870    1.7540 c         1 MOL      0.307823
    124 O16         8.2170    1.1410    2.6450 o         1 MOL     -0.421386
    125 C42         6.2680    3.5550    2.8870 c3        1 MOL      0.303612
    126 O17         4.9970    4.1330    2.9470 oh        1 MOL     -0.596836
    127 H57         5.5560    3.7650    0.4330 hn        1 MOL      0.284755
    128 H58         5.7350    1.5890    2.2740 h1        1 MOL      0.167344
    129 H59         6.9880    4.3410    2.6360 h1        1 MOL      0.034334
    130 H60         6.4580    3.1010    3.8580 h1        1 MOL      0.034334
    131 H61         4.3950    3.3950    2.8240 ho        1 MOL      0.379929
    132 N12         8.5910    2.2620    0.6990 n         1 MOL     -0.352725
    133 C43         9.9130    1.5960    0.2800 c3        1 MOL      0.116506
    134 C44         9.9500    0.0440    0.3840 c         1 MOL      0.579535
    135 O18        11.0150   -0.4890    0.5450 o         1 MOL     -0.509044
    136 C45        11.0490    2.2810    1.0180 c3        1 MOL     -0.202248
    137 H62         8.2490    2.9350    0.0280 hn        1 MOL      0.264136
    138 H63        10.0060    1.9310   -0.7530 h1        1 MOL      0.056344
    139 H64        12.0290    1.9200    0.6940 hc        1 MOL      0.069592
    140 H65        11.0190    3.3450    0.7660 hc        1 MOL      0.069592
    141 H66        10.9670    2.1410    2.0940 hc        1 MOL      0.069592
    142 N13         8.8060   -0.7040    0.3620 n         1 MOL     -0.774964
    143 C46         8.7090   -2.1220    0.6400 c3        1 MOL      0.585733
    144 C47         7.6060   -2.6210   -0.3070 c         1 MOL      0.338946
    145 O19         6.6970   -1.8240   -0.6080 o         1 MOL     -0.448275
    146 C48         8.4290   -2.3080    2.0980 c3        1 MOL     -0.453169
    147 H67         7.9080   -0.2460    0.3120 hn        1 MOL      0.330886
    148 H68         9.6640   -2.5390    0.3060 h1        1 MOL     -0.048793
    149 H69         8.1670   -3.3600    2.2380 hc        1 MOL      0.126838
    150 H70         9.3070   -2.0650    2.6920 hc        1 MOL      0.126838
    151 H71         7.6030   -1.6740    2.4320 hc        1 MOL      0.126838
    152 N14         7.6040   -3.9560   -0.5320 n         1 MOL     -0.330757
    153 C49         6.7490   -4.7500   -1.4870 c3        1 MOL      0.031216
    154 C50         7.0740   -4.5030   -2.9150 c         1 MOL      0.353993
    155 O20         6.3190   -4.6490   -3.9030 o         1 MOL     -0.519449
    156 C51         5.2310   -4.4260   -1.3520 c3        1 MOL     -0.081357
    157 C52         4.8000   -4.7070    0.0600 c3        1 MOL      0.070909
    158 C53         3.3450   -4.4230    0.3270 c         1 MOL      0.576454
    159 O21         2.6350   -5.4090    0.4950 o         1 MOL     -0.663872
    160 O22         2.9000   -3.2260    0.1720 o         1 MOL     -0.663872
    161 H72         8.3410   -4.4460   -0.0510 hn        1 MOL      0.218915
    162 H73         7.0000   -5.8040   -1.3950 h1        1 MOL      0.088044
    163 H74         4.5840   -5.0860   -1.9400 hc        1 MOL      0.068814
    164 H75         5.0730   -3.3830   -1.6430 hc        1 MOL      0.068814
    165 H76         5.3840   -4.1300    0.7750 hc        1 MOL     -0.043500
    166 H77         5.0490   -5.7480    0.2710 hc        1 MOL     -0.043500
    167 N15         8.2170   -3.8340   -3.1320 n         1 MOL     -0.200733
    168 C54         8.6140   -3.1980   -4.4410 c3        1 MOL     -0.084782
    169 H78         9.6460   -3.4590   -4.6740 h1        1 MOL      0.070957
    170 H79         7.9610   -3.5610   -5.2350 h1        1 MOL      0.070957
    171 H80         8.5230   -2.1140   -4.3620 h1        1 MOL      0.070957
    172 H81         8.9140   -3.9180   -2.3960 hn        1 MOL      0.175741
    173 Ca1         0.5650   -2.3040   -0.6160 Ca        1 MOL      1.795338
    174 O23         0.1090   -4.5470    0.9280 oh        1 MOL     -0.857758
    175 H82         0.9830   -4.8520    0.6820 ho        1 MOL      0.418153
    176 H83        -0.2660   -5.2710    1.4290 ho        1 MOL      0.418153
    177 O24         2.2950   -1.9220   -2.5980 oh        1 MOL     -0.857758
    178 H84         3.1250   -1.4680   -2.4650 ho        1 MOL      0.418153
    179 H85         2.3800   -2.3500   -3.4500 ho        1 MOL      0.418153
    180 O25        -0.0480    0.0800   -2.0290 oh        1 MOL     -0.857758
    181 H86         0.5540    0.8250   -2.0710 ho        1 MOL      0.418153
    182 H87        -0.6730    0.2400   -2.7280 ho        1 MOL      0.418153
    183 O26         0.5090   -4.4780   -2.2470 oh        1 MOL     -0.857758
    184 H88         0.1390   -5.3290   -2.4850 ho        1 MOL      0.418153
    185 H89         0.7670   -4.0880   -3.0830 ho        1 MOL      0.418153
    186 O27         2.1260   -0.1820    0.2960 oh        1 MOL     -0.857758
    187 H90         1.5960    0.5120    0.6870 ho        1 MOL      0.418153
    188 H91         3.0260    0.0600    0.5140 ho        1 MOL      0.418153
@<TRIPOS>BOND
     1    1    2 1   
     2    1    4 1   
     3    1    5 1   
     4    1    6 1   
     5    2    3 2   
     6    2    7 1   
     7    7    8 1   
     8    7   15 1   
     9    8    9 1   
    10    8   11 1   
    11    8   16 1   
    12    9   10 2   
    13    9   19 1   
    14   11   12 1   
    15   11   17 1   
    16   11   18 1   
    17   12   13 1   
    18   12   14 1   
    19   19   20 1   
    20   19   28 1   
    21   20   21 1   
    22   20   23 1   
    23   20   29 1   
    24   21   22 2   
    25   21   41 1   
    26   23   24 1   
    27   23   30 1   
    28   23   31 1   
    29   24   25 1   
    30   24   32 1   
    31   24   33 1   
    32   25   26 1   
    33   25   34 1   
    34   25   35 1   
    35   26   27 1   
    36   26   36 1   
    37   26   37 1   
    38   27   38 1   
    39   27   39 1   
    40   27   40 1   
    41   41   42 1   
    42   41   49 1   
    43   42   43 1   
    44   42   45 1   
    45   42   50 1   
    46   43   44 2   
    47   43   53 1   
    48   45   46 1   
    49   45   51 1   
    50   45   52 1   
    51   46   47 1   
    52   46   48 1   
    53   53   54 1   
    54   53   57 1   
    55   54   55 1   
    56   54   58 1   
    57   54   59 1   
    58   55   56 2   
    59   55   60 1   
    60   60   61 1   
    61   60   68 1   
    62   61   62 1   
    63   61   64 1   
    64   61   69 1   
    65   62   63 2   
    66   62   74 1   
    67   64   65 1   
    68   64   70 1   
    69   64   71 1   
    70   65   66 1   
    71   65   67 2   
    72   66   72 1   
    73   66   73 1   
    74   74   75 1   
    75   74   78 1   
    76   75   76 1   
    77   75   79 1   
    78   75   80 1   
    79   76   77 2   
    80   76   81 1   
    81   81   82 1   
    82   81   93 1   
    83   82   83 1   
    84   82   85 1   
    85   82   94 1   
    86   83   84 2   
    87   83  102 1   
    88   85   86 1   
    89   85   95 1   
    90   85   96 1   
    91   86   87 ar  
    92   86   88 ar  
    93   87   89 ar  
    94   87   97 1   
    95   88   90 ar  
    96   88   98 1   
    97   89   91 ar  
    98   89   99 1   
    99   90   91 ar  
   100   90  100 1   
   101   91   92 1   
   102   92  101 1   
   103  102  103 1   
   104  102  110 1   
   105  103  104 1   
   106  103  106 1   
   107  103  111 1   
   108  104  105 2   
   109  104  121 1   
   110  106  107 1   
   111  106  108 1   
   112  106  112 1   
   113  107  109 1   
   114  107  113 1   
   115  107  114 1   
   116  108  115 1   
   117  108  116 1   
   118  108  117 1   
   119  109  118 1   
   120  109  119 1   
   121  109  120 1   
   122  121  122 1   
   123  121  127 1   
   124  122  123 1   
   125  122  125 1   
   126  122  128 1   
   127  123  124 2   
   128  123  132 1   
   129  125  126 1   
   130  125  129 1   
   131  125  130 1   
   132  126  131 1   
   133  132  133 1   
   134  132  137 1   
   135  133  134 1   
   136  133  136 1   
   137  133  138 1   
   138  134  135 2   
   139  134  142 1   
   140  136  139 1   
   141  136  140 1   
   142  136  141 1   
   143  142  143 1   
   144  142  147 1   
   145  143  144 1   
   146  143  146 1   
   147  143  148 1   
   148  144  145 2   
   149  144  152 1   
   150  146  149 1   
   151  146  150 1   
   152  146  151 1   
   153  152  153 1   
   154  152  161 1   
   155  153  154 1   
   156  153  156 1   
   157  153  162 1   
   158  154  155 2   
   159  154  167 1   
   160  156  157 1   
   161  156  163 1   
   162  156  164 1   
   163  157  158 1   
   164  157  165 1   
   165  157  166 1   
   166  158  159 1   
   167  158  160 1   
   168  167  168 1   
   169  167  172 1   
   170  168  169 1   
   171  168  170 1   
   172  168  171 1   
   173  174  175 1   
   174  174  176 1   
   175  177  178 1   
   176  177  179 1   
   177  180  181 1   
   178  180  182 1   
   179  183  184 1   
   180  183  185 1   
   181  186  187 1   
   182  186  188 1   
@<TRIPOS>SUBSTRUCTURE
     1 MOL         1 TEMP              0 ****  ****    0 ROOT
