@<TRIPOS>MOLECULE
MOL
  198   191     1     0     0
SMALL
resp


@<TRIPOS>ATOM
      1 C1          6.1070    1.6920    5.9120 c3        1 MOL     -0.160466
      2 C2          5.5580    1.1850    4.5330 c         1 MOL      0.715154
      3 O1          5.4090    1.9880    3.6250 o         1 MOL     -0.590069
      4 H1          5.9060    2.7580    6.0120 hc        1 MOL      0.041286
      5 H2          5.6150    1.1530    6.7210 hc        1 MOL      0.041286
      6 H3          7.1830    1.5190    5.9610 hc        1 MOL      0.041286
      7 N1          5.4100   -0.1320    4.2350 n         1 MOL     -0.509035
      8 C3          5.0710   -0.5950    2.8950 c3        1 MOL      0.199447
      9 C4          3.6340   -0.4030    2.3740 c         1 MOL      0.367569
     10 O2          3.2930   -0.8950    1.2660 o         1 MOL     -0.371539
     11 C5          5.5130   -1.9710    2.6980 c3        1 MOL     -0.147637
     12 C6          6.9140   -2.1750    3.2540 c         1 MOL      0.778109
     13 O3          7.1310   -2.5190    4.4240 o         1 MOL     -0.702598
     14 O4          7.8540   -2.2470    2.4730 o         1 MOL     -0.702598
     15 H4          5.5850   -0.8400    4.9380 hn        1 MOL      0.229718
     16 H5          5.7120   -0.0580    2.1920 h1        1 MOL      0.078030
     17 H6          5.5040   -2.2200    1.6270 hc        1 MOL     -0.029120
     18 H7          4.8380   -2.6280    3.2540 hc        1 MOL     -0.029120
     19 N2          2.7680    0.2770    3.1130 n         1 MOL     -0.439394
     20 C7          1.3430    0.3510    2.9410 c3        1 MOL      0.281038
     21 C8          0.9210    1.7220    2.4810 c         1 MOL      0.255145
     22 O5          1.4520    2.7000    3.0400 o         1 MOL     -0.449110
     23 C9          0.6110   -0.1090    4.2100 c3        1 MOL     -0.380109
     24 C10         0.7120   -1.6260    4.4250 c3        1 MOL      0.201292
     25 C11        -0.5080   -2.2060    5.1730 c3        1 MOL     -0.054699
     26 C12        -0.8570   -3.6160    4.7860 c3        1 MOL     -0.103698
     27 N3         -1.2950   -3.6720    3.3900 n4        1 MOL     -0.355206
     28 H8          3.2050    0.7410    3.8990 hn        1 MOL      0.219927
     29 H9          1.0630   -0.3340    2.1340 h1        1 MOL      0.215744
     30 H10        -0.4130    0.1470    3.9420 hc        1 MOL      0.115565
     31 H11         0.7890    0.4920    5.1040 hc        1 MOL      0.115565
     32 H12         1.6210   -1.9400    4.9290 hc        1 MOL     -0.012272
     33 H13         0.8650   -2.0550    3.4330 hc        1 MOL     -0.012272
     34 H14        -1.3390   -1.5540    4.8990 hc        1 MOL      0.044930
     35 H15        -0.2770   -2.1380    6.2360 hc        1 MOL      0.044930
     36 H16        -1.5210   -4.0320    5.5400 hx        1 MOL      0.115663
     37 H17         0.0500   -4.2120    4.8860 hx        1 MOL      0.115663
     38 H18        -1.6710   -4.5930    3.2270 hn        1 MOL      0.332766
     39 H19        -2.1070   -3.0710    3.3360 hn        1 MOL      0.332766
     40 H20        -0.6380   -3.3450    2.6950 hn        1 MOL      0.332766
     41 N4         -0.0140    1.8830    1.4710 n         1 MOL     -0.194277
     42 C13        -0.9020    0.9510    0.7210 c3        1 MOL     -0.289522
     43 C14        -1.6110   -0.1260    1.5880 c         1 MOL      0.638948
     44 O6         -1.2410   -1.2570    1.7020 o         1 MOL     -0.602184
     45 C15        -0.1590    0.4930   -0.6150 c3        1 MOL     -0.184603
     46 C16         0.3860    1.6180   -1.5000 c         1 MOL      0.696115
     47 O7         -0.0650    2.7790   -1.3730 o         1 MOL     -0.701813
     48 O8          1.2010    1.2090   -2.3370 o         1 MOL     -0.701813
     49 H21        -0.1560    2.8160    1.1200 hn        1 MOL      0.171774
     50 H22        -1.7110    1.6510    0.4880 h1        1 MOL      0.091974
     51 H23        -0.9120   -0.1300   -1.0990 hc        1 MOL      0.107948
     52 H24         0.6440   -0.1580   -0.2630 hc        1 MOL      0.107948
     53 N5         -2.7480    0.2190    2.1980 n         1 MOL     -0.457774
     54 C17        -3.5520    1.5020    2.2080 c3        1 MOL     -0.002468
     55 C18        -4.7900    1.4530    3.1820 c         1 MOL      0.506185
     56 O9         -4.8090    0.5750    4.0620 o         1 MOL     -0.553863
     57 H25        -3.1590   -0.6350    2.5540 hn        1 MOL      0.295442
     58 H26        -3.8960    1.7490    1.2010 h1        1 MOL      0.092945
     59 H27        -2.9400    2.3780    2.4370 h1        1 MOL      0.092945
     60 N6         -5.8530    2.2230    2.9520 n         1 MOL     -0.435414
     61 C19        -5.9670    3.3560    1.9790 c3        1 MOL      0.043693
     62 C20        -6.7640    2.9510    0.7160 c         1 MOL      0.477338
     63 O10        -7.6370    2.1080    0.7600 o         1 MOL     -0.446347
     64 C21        -6.5360    4.6870    2.5490 c3        1 MOL     -0.153336
     65 C22        -7.9310    4.4600    3.1990 c         1 MOL      0.692784
     66 O11        -7.9480    3.9120    4.2750 o         1 MOL     -0.669045
     67 O12        -8.9680    4.7240    2.4610 o         1 MOL     -0.669045
     68 H28        -6.6560    1.9000    3.4650 hn        1 MOL      0.365808
     69 H29        -4.9780    3.4370    1.5100 h1        1 MOL     -0.019202
     70 H30        -6.5350    5.3750    1.7100 hc        1 MOL      0.005816
     71 H31        -6.0050    5.1250    3.3850 hc        1 MOL      0.005816
     72 N7         -6.3440    3.3980   -0.4930 n         1 MOL     -0.316382
     73 C23        -6.9450    3.0470   -1.7690 c3        1 MOL     -0.240287
     74 C24        -6.4920    1.7350   -2.2530 c         1 MOL      0.589342
     75 O13        -7.2930    1.0870   -2.9430 o         1 MOL     -0.544823
     76 H32        -5.5410    4.0210   -0.4720 hn        1 MOL      0.262108
     77 H33        -6.7990    3.8560   -2.4860 h1        1 MOL      0.140194
     78 H34        -8.0340    2.9940   -1.6800 h1        1 MOL      0.140194
     79 N8         -5.2480    1.3080   -1.9210 n         1 MOL     -0.475165
     80 C25        -4.8550   -0.0530   -2.3390 c3        1 MOL     -0.081403
     81 C26        -5.1300   -1.0630   -1.1850 c         1 MOL      0.769427
     82 O14        -4.9760   -0.6850   -0.0410 o         1 MOL     -0.561122
     83 C27        -3.3640   -0.0460   -2.8160 c3        1 MOL      0.416541
     84 C28        -3.2420    0.4280   -4.2880 c3        1 MOL     -0.452075
     85 O15        -2.9170   -1.3940   -2.8400 oh        1 MOL     -0.612842
     86 H35        -4.5800    1.8740   -1.4260 hn        1 MOL      0.234131
     87 H36        -5.3790   -0.3140   -3.2670 h1        1 MOL      0.114027
     88 H37        -2.6410    0.5070   -2.1990 h1        1 MOL      0.000702
     89 H38        -1.9620   -1.4620   -2.8190 ho        1 MOL      0.396986
     90 H39        -3.4750    1.4860   -4.3880 hc        1 MOL      0.120257
     91 H40        -2.1750    0.3800   -4.5200 hc        1 MOL      0.120257
     92 H41        -3.7520   -0.2560   -4.9710 hc        1 MOL      0.120257
     93 N9         -5.5260   -2.2630   -1.4650 n         1 MOL     -0.540995
     94 C29        -5.7610   -3.5030   -0.6030 c3        1 MOL     -0.273862
     95 C30        -4.5280   -4.4640   -0.5020 c         1 MOL      0.441697
     96 O16        -4.6210   -5.6200    0.0210 o         1 MOL     -0.536430
     97 C31        -7.0480   -4.2460   -0.8850 c3        1 MOL      0.431214
     98 C32        -7.1110   -4.8620   -2.2940 c3        1 MOL     -0.201964
     99 C33        -8.1440   -3.2410   -0.5420 c3        1 MOL     -0.188358
    100 C34        -8.4730   -5.5040   -2.5730 c3        1 MOL     -0.079956
    101 H42        -5.7250   -2.4460   -2.4430 hn        1 MOL      0.279776
    102 H43        -5.7840   -3.2170    0.4490 h1        1 MOL      0.167155
    103 H44        -7.0960   -4.9990   -0.0930 hc        1 MOL     -0.040030
    104 H45        -6.3040   -5.5900   -2.4170 hc        1 MOL      0.065329
    105 H46        -6.9570   -3.9720   -2.9170 hc        1 MOL      0.065329
    106 H47        -8.0150   -2.7540    0.4300 hc        1 MOL      0.053976
    107 H48        -8.2560   -2.5770   -1.4010 hc        1 MOL      0.053976
    108 H49        -9.1050   -3.7160   -0.3780 hc        1 MOL      0.053976
    109 H50        -9.1830   -4.6780   -2.6420 hc        1 MOL      0.027782
    110 H51        -8.5470   -5.9370   -3.5610 hc        1 MOL      0.027782
    111 H52        -8.7620   -6.1620   -1.7530 hc        1 MOL      0.027782
    112 N10        -3.2830   -4.0450   -0.8450 n         1 MOL     -0.052106
    113 C35        -2.0380   -4.7860   -0.6520 c3        1 MOL     -0.472458
    114 C36        -0.8670   -3.7670   -0.5590 c         1 MOL      0.689155
    115 O17        -0.8690   -2.6380   -1.0900 o         1 MOL     -0.408759
    116 C37        -1.7310   -5.8370   -1.6990 c3        1 MOL      0.563881
    117 C38        -1.6440   -5.3570   -3.1500 c3        1 MOL     -0.307035
    118 O18        -2.6870   -6.7840   -1.5800 oh        1 MOL     -0.627219
    119 H53        -3.1860   -3.0830   -1.1380 hn        1 MOL      0.103906
    120 H54        -2.0780   -5.1950    0.3550 h1        1 MOL      0.102000
    121 H55        -0.7790   -6.2840   -1.4150 h1        1 MOL     -0.036857
    122 H56        -3.3040   -6.4130   -0.9510 ho        1 MOL      0.382583
    123 H57        -2.3750   -4.5680   -3.3690 hc        1 MOL      0.072156
    124 H58        -0.7490   -4.7570   -3.2940 hc        1 MOL      0.072156
    125 H59        -1.6480   -6.2090   -3.8230 hc        1 MOL      0.072156
    126 N11         0.1960   -4.1460    0.1490 n         1 MOL     -0.580358
    127 C39         1.4680   -3.3690    0.3780 c3        1 MOL     -0.030821
    128 C40         2.1530   -3.1260   -0.9360 c         1 MOL      0.401904
    129 O19         2.1200   -3.9120   -1.8590 o         1 MOL     -0.519295
    130 C41         2.4300   -4.0600    1.3230 c3        1 MOL      0.367042
    131 C42         3.1000   -5.3390    0.8140 c3        1 MOL     -0.312252
    132 O20         1.8000   -4.4120    2.5880 oh        1 MOL     -0.650190
    133 H60         0.1900   -5.1170    0.4330 hn        1 MOL      0.350236
    134 H61         1.1780   -2.4290    0.8510 h1        1 MOL     -0.099248
    135 H62         3.2030   -3.3170    1.5320 h1        1 MOL      0.014290
    136 H63         2.5250   -4.6420    3.1790 ho        1 MOL      0.417753
    137 H64         2.3460   -6.1260    0.8840 hc        1 MOL      0.085713
    138 H65         3.5770   -5.2800   -0.1690 hc        1 MOL      0.085713
    139 H66         3.8380   -5.6120    1.5680 hc        1 MOL      0.085713
    140 N12         2.8680   -2.0010   -1.1190 n         1 MOL     -0.151698
    141 C43         3.7330   -1.6710   -2.3540 c3        1 MOL     -0.152632
    142 C44         4.1640   -0.1570   -2.4840 c         1 MOL      0.600603
    143 O21         4.4920    0.4200   -3.5730 o         1 MOL     -0.602062
    144 C45         5.0100   -2.5270   -2.1830 c3        1 MOL     -0.247879
    145 C46         6.1760   -2.2720   -3.2370 c3        1 MOL     -0.014730
    146 C47         7.2210   -3.4050   -2.9270 c3        1 MOL     -0.197392
    147 C48         7.2150   -4.6930   -3.8570 c3        1 MOL      0.004603
    148 N13         8.0310   -4.5610   -5.1150 n4        1 MOL     -0.302112
    149 H67         2.9030   -1.2880   -0.4050 hn        1 MOL      0.108305
    150 H68         3.2720   -1.9670   -3.2950 h1        1 MOL      0.126997
    151 H69         4.7270   -3.5810   -2.1430 hc        1 MOL      0.154455
    152 H70         5.5260   -2.2440   -1.2650 hc        1 MOL      0.154455
    153 H71         6.6530   -1.2910   -3.1680 hc        1 MOL      0.036325
    154 H72         5.7830   -2.3250   -4.2440 hc        1 MOL      0.036325
    155 H73         7.1600   -3.7430   -1.8880 hc        1 MOL      0.107807
    156 H74         8.1360   -2.8740   -3.1730 hc        1 MOL      0.107807
    157 H75         6.1660   -4.8480   -4.1430 hx        1 MOL      0.093392
    158 H76         7.4680   -5.5910   -3.3070 hx        1 MOL      0.093392
    159 H77         8.9470   -4.1620   -4.9560 hn        1 MOL      0.285861
    160 H78         7.9970   -5.3950   -5.6860 hn        1 MOL      0.285861
    161 H79         7.5070   -3.8850   -5.6370 hn        1 MOL      0.285861
    162 N14         4.3380    0.4300   -1.3110 n         1 MOL      0.102350
    163 C49         4.7740    1.8650   -1.1150 c3        1 MOL     -0.964253
    164 C50         6.3550    2.0380   -0.9710 c         1 MOL      0.797724
    165 O22         7.1000    1.2680   -0.3440 o         1 MOL     -0.564782
    166 C51         3.9830    2.5600    0.0520 c3        1 MOL      0.225331
    167 C52         4.3400    4.0160    0.3100 c3        1 MOL     -0.808507
    168 C53         3.9750    4.8910   -0.8470 c         1 MOL      0.981442
    169 O23         4.8200    5.0790   -1.6630 o         1 MOL     -0.806896
    170 O24         2.9050    5.5600   -0.8370 o         1 MOL     -0.806896
    171 H80         4.1770   -0.1530   -0.5090 hn        1 MOL      0.121412
    172 H81         4.4790    2.4120   -2.0130 h1        1 MOL      0.225481
    173 H82         4.3760    2.0660    0.9410 hc        1 MOL      0.059348
    174 H83         2.9160    2.3810   -0.0770 hc        1 MOL      0.059348
    175 H84         5.3670    4.2500    0.5790 hc        1 MOL      0.246512
    176 H85         3.7240    4.2510    1.1770 hc        1 MOL      0.246512
    177 N15         6.8330    3.1260   -1.5350 n         1 MOL     -0.468651
    178 C54         8.3110    3.4900   -1.5930 c3        1 MOL     -0.019359
    179 H86         8.4250    4.5660   -1.4670 h1        1 MOL      0.055542
    180 H87         8.8450    2.9730   -0.7950 h1        1 MOL      0.055542
    181 H88         8.7210    3.1930   -2.5580 h1        1 MOL      0.055542
    182 H89         6.1200    3.7120   -1.9390 hn        1 MOL      0.477625
    183 Ca1         0.5770    5.2450   -1.8930 Ca        1 MOL      1.775131
    184 O25         1.1920    7.7530   -0.6430 oh        1 MOL     -0.861844
    185 H90         1.4670    8.5940   -1.0050 ho        1 MOL      0.422644
    186 H91         2.0060    7.2810   -0.4820 ho        1 MOL      0.422644
    187 O26         2.2230    6.1800   -3.7840 oh        1 MOL     -0.861844
    188 H92         2.9320    5.7500   -4.2530 ho        1 MOL      0.422644
    189 H93         2.1280    7.0290   -4.2190 ho        1 MOL      0.422644
    190 O27        -0.4950    7.5230   -3.0420 oh        1 MOL     -0.861844
    191 H94        -0.0460    8.2820   -2.6490 ho        1 MOL      0.422644
    192 H95        -0.8750    7.8720   -3.8550 ho        1 MOL      0.422644
    193 O28        -1.3470    4.8920   -3.6380 oh        1 MOL     -0.861844
    194 H96        -1.8570    5.6960   -3.7150 ho        1 MOL      0.422644
    195 H97        -1.2760    4.5700   -4.5390 ho        1 MOL      0.422644
    196 O29         2.2850    3.4040   -2.8920 oh        1 MOL     -0.861844
    197 H98         1.8090    2.6430   -2.5500 ho        1 MOL      0.422644
    198 H99         2.8850    3.0310   -3.5460 ho        1 MOL      0.422644
@<TRIPOS>BOND
     1    1    2 1   
     2    1    4 1   
     3    1    5 1   
     4    1    6 1   
     5    2    3 2   
     6    2    7 1   
     7    7    8 1   
     8    7   15 1   
     9    8    9 1   
    10    8   11 1   
    11    8   16 1   
    12    9   10 2   
    13    9   19 1   
    14   11   12 1   
    15   11   17 1   
    16   11   18 1   
    17   12   13 1   
    18   12   14 1   
    19   19   20 1   
    20   19   28 1   
    21   20   21 1   
    22   20   23 1   
    23   20   29 1   
    24   21   22 2   
    25   21   41 1   
    26   23   24 1   
    27   23   30 1   
    28   23   31 1   
    29   24   25 1   
    30   24   32 1   
    31   24   33 1   
    32   25   26 1   
    33   25   34 1   
    34   25   35 1   
    35   26   27 1   
    36   26   36 1   
    37   26   37 1   
    38   27   38 1   
    39   27   39 1   
    40   27   40 1   
    41   41   42 1   
    42   41   49 1   
    43   42   43 1   
    44   42   45 1   
    45   42   50 1   
    46   43   44 2   
    47   43   53 1   
    48   45   46 1   
    49   45   51 1   
    50   45   52 1   
    51   46   47 1   
    52   46   48 1   
    53   53   54 1   
    54   53   57 1   
    55   54   55 1   
    56   54   58 1   
    57   54   59 1   
    58   55   56 2   
    59   55   60 1   
    60   60   61 1   
    61   60   68 1   
    62   61   62 1   
    63   61   64 1   
    64   61   69 1   
    65   62   63 2   
    66   62   72 1   
    67   64   65 1   
    68   64   70 1   
    69   64   71 1   
    70   65   66 1   
    71   65   67 1   
    72   72   73 1   
    73   72   76 1   
    74   73   74 1   
    75   73   77 1   
    76   73   78 1   
    77   74   75 2   
    78   74   79 1   
    79   79   80 1   
    80   79   86 1   
    81   80   81 1   
    82   80   83 1   
    83   80   87 1   
    84   81   82 2   
    85   81   93 1   
    86   83   84 1   
    87   83   85 1   
    88   83   88 1   
    89   84   90 1   
    90   84   91 1   
    91   84   92 1   
    92   85   89 1   
    93   93   94 1   
    94   93  101 1   
    95   94   95 1   
    96   94   97 1   
    97   94  102 1   
    98   95   96 2   
    99   95  112 1   
   100   97   98 1   
   101   97   99 1   
   102   97  103 1   
   103   98  100 1   
   104   98  104 1   
   105   98  105 1   
   106   99  106 1   
   107   99  107 1   
   108   99  108 1   
   109  100  109 1   
   110  100  110 1   
   111  100  111 1   
   112  112  113 1   
   113  112  119 1   
   114  113  114 1   
   115  113  116 1   
   116  113  120 1   
   117  114  115 2   
   118  114  126 1   
   119  116  117 1   
   120  116  118 1   
   121  116  121 1   
   122  117  123 1   
   123  117  124 1   
   124  117  125 1   
   125  118  122 1   
   126  126  127 1   
   127  126  133 1   
   128  127  128 1   
   129  127  130 1   
   130  127  134 1   
   131  128  129 2   
   132  128  140 1   
   133  130  131 1   
   134  130  132 1   
   135  130  135 1   
   136  131  137 1   
   137  131  138 1   
   138  131  139 1   
   139  132  136 1   
   140  140  141 1   
   141  140  149 1   
   142  141  142 1   
   143  141  144 1   
   144  141  150 1   
   145  142  143 2   
   146  142  162 1   
   147  144  145 1   
   148  144  151 1   
   149  144  152 1   
   150  145  146 1   
   151  145  153 1   
   152  145  154 1   
   153  146  147 1   
   154  146  155 1   
   155  146  156 1   
   156  147  148 1   
   157  147  157 1   
   158  147  158 1   
   159  148  159 1   
   160  148  160 1   
   161  148  161 1   
   162  162  163 1   
   163  162  171 1   
   164  163  164 1   
   165  163  166 1   
   166  163  172 1   
   167  164  165 2   
   168  164  177 1   
   169  166  167 1   
   170  166  173 1   
   171  166  174 1   
   172  167  168 1   
   173  167  175 1   
   174  167  176 1   
   175  168  169 1   
   176  168  170 1   
   177  177  178 1   
   178  177  182 1   
   179  178  179 1   
   180  178  180 1   
   181  178  181 1   
   182  184  185 1   
   183  184  186 1   
   184  187  188 1   
   185  187  189 1   
   186  190  191 1   
   187  190  192 1   
   188  193  194 1   
   189  193  195 1   
   190  196  197 1   
   191  196  198 1   
@<TRIPOS>SUBSTRUCTURE
     1 MOL         1 TEMP              0 ****  ****    0 ROOT
