@<TRIPOS>MOLECULE
MOL
  184   179     1     0     0
SMALL
resp


@<TRIPOS>ATOM
      1 C1          9.3140    7.4930   -1.6550 c3        1 MOL     -0.244857
      2 C2          8.3310    6.5970   -0.9140 c         1 MOL      0.651129
      3 O1          7.3920    7.0660   -0.2940 o         1 MOL     -0.595424
      4 H1          9.5410    8.3670   -1.0440 hc        1 MOL      0.063475
      5 H2         10.2330    6.9400   -1.8530 hc        1 MOL      0.063475
      6 H3          8.8730    7.8140   -2.5990 hc        1 MOL      0.063475
      7 N1          8.4200    5.2880   -0.8670 n         1 MOL     -0.537706
      8 C3          9.6740    4.4660   -1.2220 c3        1 MOL      0.199751
      9 C4         10.3820    3.9030    0.0170 c         1 MOL      0.589830
     10 O2         11.6240    3.5920   -0.0840 o         1 MOL     -0.581841
     11 C5          9.3670    3.3730   -2.2880 c3        1 MOL     -0.242673
     12 C6          8.1340    2.5200   -2.1310 c         1 MOL      0.667980
     13 O3          7.4360    2.4960   -1.0440 o         1 MOL     -0.731254
     14 O4          7.8060    1.6900   -3.0390 o         1 MOL     -0.731254
     15 H4          7.6630    4.7990   -0.4060 hn        1 MOL      0.357020
     16 H5         10.3940    5.1870   -1.6130 h1        1 MOL      0.006283
     17 H6         10.2730    2.7610   -2.3500 hc        1 MOL      0.065898
     18 H7          9.2870    3.9420   -3.2170 hc        1 MOL      0.065898
     19 N2          9.6670    3.6910    1.1370 n         1 MOL     -0.623013
     20 C7         10.2810    3.2050    2.3980 c3        1 MOL      0.299180
     21 C8          9.4640    2.0420    2.9690 c         1 MOL      0.350403
     22 O5          9.6680    1.6350    4.1180 o         1 MOL     -0.533973
     23 C9         10.5360    4.4400    3.2810 c3        1 MOL     -0.319666
     24 H8          8.6580    3.6590    1.1740 hn        1 MOL      0.325766
     25 H9         11.2510    2.7490    2.1930 h1        1 MOL      0.036289
     26 H10         9.6450    5.0520    3.3920 hc        1 MOL      0.090572
     27 H11        10.7580    4.1470    4.3080 hc        1 MOL      0.090572
     28 H12        11.3140    5.0680    2.8460 hc        1 MOL      0.090572
     29 N3          8.5420    1.4930    2.1730 n         1 MOL     -0.104820
     30 C10         7.9130    0.1910    2.3570 c3        1 MOL      0.026832
     31 C11         7.9740   -0.6460    1.0650 c         1 MOL      0.130118
     32 O6          8.0250   -0.1350   -0.0350 o         1 MOL     -0.326914
     33 C12         6.4110    0.3560    2.7840 c3        1 MOL     -0.194133
     34 C13         5.6530    1.3260    1.8610 c         1 MOL      0.646103
     35 O7          5.2470    2.4220    2.2980 o         1 MOL     -0.660461
     36 O8          5.4180    0.9760    0.6810 o         1 MOL     -0.660461
     37 H13         8.6180    1.8750    1.2440 hn        1 MOL      0.154512
     38 H14         8.4890   -0.3110    3.1360 h1        1 MOL      0.048620
     39 H15         6.4830    0.7350    3.8060 hc        1 MOL      0.069935
     40 H16         5.9260   -0.6180    2.8800 hc        1 MOL      0.069935
     41 N4          8.0590   -1.9600    1.2070 n         1 MOL     -0.107376
     42 C14         8.0410   -2.9880    0.1410 c3        1 MOL     -0.329417
     43 C15         6.5940   -3.1180   -0.3840 c         1 MOL      0.892003
     44 O9          5.7940   -2.1710   -0.3930 o         1 MOL     -0.656199
     45 H17         8.1080   -2.3830    2.1310 hn        1 MOL      0.231801
     46 H18         8.4240   -3.8880    0.6250 h1        1 MOL      0.109149
     47 H19         8.7210   -2.6220   -0.6230 h1        1 MOL      0.109149
     48 N5          6.2320   -4.3580   -0.8370 n         1 MOL     -0.745336
     49 C16         4.8770   -4.6630   -1.3330 c3        1 MOL      0.082888
     50 C17         3.7920   -4.8400   -0.2740 c         1 MOL      0.778029
     51 O10         4.0230   -5.3560    0.7890 o         1 MOL     -0.559025
     52 C18         4.9920   -5.9040   -2.1690 c3        1 MOL     -0.190162
     53 C19         5.7410   -5.7140   -3.4460 c         1 MOL      0.622437
     54 N6          6.4890   -6.7390   -3.7900 n         1 MOL     -0.764933
     55 O11         5.5950   -4.6660   -4.1050 o         1 MOL     -0.554966
     56 H20         6.9480   -5.0770   -0.8070 hn        1 MOL      0.341091
     57 H21         4.6220   -3.7660   -1.8990 h1        1 MOL      0.019808
     58 H22         3.9510   -6.1340   -2.3800 hc        1 MOL      0.070905
     59 H23         5.3200   -6.7060   -1.5020 hc        1 MOL      0.070905
     60 H24         6.5670   -7.5770   -3.2190 hn        1 MOL      0.365664
     61 H25         6.9130   -6.6640   -4.7020 hn        1 MOL      0.365664
     62 N7          2.5180   -4.6460   -0.6530 n         1 MOL     -0.711031
     63 C20         1.3430   -4.7860    0.2540 c3        1 MOL     -0.038335
     64 C21         1.3870   -3.6430    1.2640 c         1 MOL      0.732630
     65 O12         2.3410   -2.8950    1.4120 o         1 MOL     -0.540798
     66 H26         2.2950   -4.3590   -1.5930 hn        1 MOL      0.362117
     67 H27         1.4190   -5.8050    0.6180 h1        1 MOL      0.125766
     68 H28         0.4920   -4.6100   -0.3990 h1        1 MOL      0.125766
     69 N8          0.3470   -3.4740    2.0700 n         1 MOL     -0.693504
     70 C22        -0.7080   -4.5340    2.2790 c3        1 MOL     -0.023725
     71 C23        -2.1380   -3.9620    2.1160 c         1 MOL      0.778909
     72 O13        -3.0670   -4.7340    1.7440 o         1 MOL     -0.606472
     73 C24        -0.5550   -5.1340    3.6960 c3        1 MOL      0.423797
     74 C25         0.7910   -5.7910    3.9340 c3        1 MOL     -0.480767
     75 O14        -0.6290   -4.1570    4.6700 oh        1 MOL     -0.570138
     76 H29         0.4100   -2.6950    2.7170 hn        1 MOL      0.366744
     77 H30        -0.5840   -5.3550    1.5740 h1        1 MOL      0.011706
     78 H31        -1.4180   -5.8050    3.7640 h1        1 MOL     -0.037634
     79 H32        -0.0820   -4.4840    5.3890 ho        1 MOL      0.371286
     80 H33         0.7350   -6.6220    4.6380 hc        1 MOL      0.122478
     81 H34         1.1760   -6.1270    2.9750 hc        1 MOL      0.122478
     82 H35         1.4430   -5.0520    4.4020 hc        1 MOL      0.122478
     83 N9         -2.2490   -2.6440    2.1890 n         1 MOL     -0.639821
     84 C26        -3.4880   -1.8870    2.0750 c3        1 MOL      0.044808
     85 C27        -3.4600   -1.0660    0.8070 c         1 MOL      0.678063
     86 O15        -2.4600   -0.4200    0.4160 o         1 MOL     -0.596548
     87 C28        -3.7800   -0.8370    3.2300 c3        1 MOL      0.099366
     88 C29        -3.4820   -1.4070    4.6740 c3        1 MOL     -0.289631
     89 C30        -5.2390   -0.2110    3.2530 c3        1 MOL     -0.018115
     90 C31        -4.2110   -2.7060    5.0130 c3        1 MOL     -0.170633
     91 H36        -1.4040   -2.1950    2.5200 hn        1 MOL      0.319735
     92 H37        -4.3160   -2.5850    2.1260 h1        1 MOL      0.143379
     93 H38        -3.1540    0.0280    3.0030 hc        1 MOL      0.033562
     94 H39        -3.8680   -0.6960    5.4030 hc        1 MOL      0.099184
     95 H40        -2.4350   -1.5810    4.9160 hc        1 MOL      0.099184
     96 H41        -5.2770    0.4420    4.1230 hc        1 MOL      0.027536
     97 H42        -5.4000    0.3820    2.3460 hc        1 MOL      0.027536
     98 H43        -5.9440   -1.0390    3.3300 hc        1 MOL      0.027536
     99 H44        -4.1980   -2.7910    6.1040 hc        1 MOL      0.039882
    100 H45        -5.2670   -2.5710    4.7500 hc        1 MOL      0.039882
    101 H46        -3.7530   -3.5790    4.5500 hc        1 MOL      0.039882
    102 N10        -4.5410   -0.9000    0.0410 n         1 MOL     -0.629836
    103 C32        -5.9170   -1.4560    0.2030 c3        1 MOL      0.019138
    104 C33        -7.0390   -0.3800   -0.3070 c         1 MOL      0.785960
    105 O16        -6.7470    0.7260   -0.8480 o         1 MOL     -0.584176
    106 C34        -6.1060   -2.7480   -0.5880 c3        1 MOL      0.054024
    107 C35        -5.4280   -2.7850   -1.9630 c         1 MOL      0.737094
    108 O17        -5.2390   -1.7420   -2.6840 o         1 MOL     -0.712260
    109 O18        -5.0440   -3.9050   -2.3210 o         1 MOL     -0.712260
    110 H47        -4.4380   -0.2820   -0.7530 hn        1 MOL      0.351438
    111 H48        -6.1500   -1.6770    1.2400 h1        1 MOL      0.018482
    112 H49        -7.1600   -3.0030   -0.7150 hc        1 MOL     -0.062253
    113 H50        -5.7490   -3.6100   -0.0220 hc        1 MOL     -0.062253
    114 N11        -8.3470   -0.6770    0.0020 n         1 MOL     -0.757924
    115 C36        -9.5310    0.0430   -0.5360 c3        1 MOL      0.399822
    116 C37       -10.2670    0.8280    0.6140 c         1 MOL      0.185551
    117 O19       -10.2470    0.4100    1.7630 o         1 MOL     -0.480521
    118 C38       -10.3940   -0.9310   -1.3340 c3        1 MOL      0.087381
    119 C39        -9.6300   -2.0170   -2.0920 ca        1 MOL     -0.257994
    120 C40        -9.7710   -3.3350   -1.6900 ca        1 MOL      0.092324
    121 C41        -8.8650   -1.6630   -3.2630 ca        1 MOL      0.092324
    122 C42        -9.2000   -4.3530   -2.5140 ca        1 MOL     -0.379144
    123 C43        -8.1630   -2.6740   -3.9130 ca        1 MOL     -0.379144
    124 C44        -8.3220   -4.0520   -3.5740 ca        1 MOL      0.142748
    125 H51        -8.5130   -1.5630    0.4590 hn        1 MOL      0.323906
    126 H52        -9.1540    0.7730   -1.2440 h1        1 MOL      0.079385
    127 H53       -11.0460   -0.3820   -2.0060 hc        1 MOL     -0.020626
    128 H54       -11.1990   -1.3970   -0.7640 hc        1 MOL     -0.020626
    129 H55       -10.4590   -3.5960   -0.8960 ha        1 MOL      0.071408
    130 H56        -8.8110   -0.6540   -3.6330 ha        1 MOL      0.071408
    131 H57        -9.3700   -5.4010   -2.3090 ha        1 MOL      0.165995
    132 H58        -7.5780   -2.3780   -4.7680 ha        1 MOL      0.165995
    133 H59        -7.9340   -4.8980   -4.1290 ha        1 MOL      0.065322
    134 N12       -10.8340    2.0380    0.5140 n         1 MOL      0.049563
    135 C45       -10.9120    2.7640   -0.7390 c3        1 MOL     -0.067464
    136 C46        -9.6490    3.3020   -1.2700 c         1 MOL      0.560727
    137 O20        -9.1890    3.0880   -2.3860 o         1 MOL     -0.608600
    138 C47       -11.9660    3.8930   -0.5150 c3        1 MOL      0.112019
    139 C48       -12.6080    3.6580    0.8040 c3        1 MOL     -0.153432
    140 C49       -11.5650    2.8160    1.5290 c3        1 MOL     -0.025756
    141 H60       -11.2970    2.1110   -1.5150 h1        1 MOL     -0.004242
    142 H61       -11.5210    4.8840   -0.5840 hc        1 MOL     -0.008884
    143 H62       -12.6610    3.8430   -1.3560 hc        1 MOL     -0.008884
    144 H63       -12.7650    4.6630    1.2020 hc        1 MOL      0.049929
    145 H64       -13.5870    3.1930    0.8000 hc        1 MOL      0.049929
    146 H65       -10.8170    3.4200    2.0340 h1        1 MOL      0.038390
    147 H66       -11.9130    2.0620    2.2380 h1        1 MOL      0.038390
    148 N13        -8.8500    3.8040   -0.3630 n         1 MOL     -0.460350
    149 C50        -7.4660    4.2950   -0.6000 c3        1 MOL      0.163421
    150 C51        -7.3200    5.4860   -1.5540 c         1 MOL      0.392268
    151 O21        -7.7400    6.5750   -1.1100 o         1 MOL     -0.588408
    152 C52        -6.8650    4.6460    0.7530 c3        1 MOL      0.421015
    153 C53        -6.7300    3.4940    1.7490 c3        1 MOL     -0.237164
    154 C54        -5.9120    3.8560    2.9860 c         1 MOL      0.790275
    155 O22        -6.1220    3.2890    4.0880 o         1 MOL     -0.734837
    156 O23        -4.9580    4.6320    2.8540 o         1 MOL     -0.734837
    157 H67        -9.1960    3.9110    0.5800 hn        1 MOL      0.319466
    158 H68        -6.7960    3.4970   -0.9100 h1        1 MOL      0.065642
    159 H69        -7.4960    5.4420    1.1610 hc        1 MOL     -0.126090
    160 H70        -5.8790    5.1010    0.5900 hc        1 MOL     -0.126090
    161 H71        -6.2550    2.6290    1.3020 hc        1 MOL     -0.028943
    162 H72        -7.7260    3.2630    2.1410 hc        1 MOL     -0.028943
    163 N14        -6.8350    5.4160   -2.7710 n         1 MOL     -0.278016
    164 C55        -6.5170    4.1970   -3.5370 c3        1 MOL     -0.258086
    165 H73        -7.2990    3.4550   -3.3790 h1        1 MOL      0.121128
    166 H74        -6.4560    4.4400   -4.5980 h1        1 MOL      0.121128
    167 H75        -5.5610    3.7940   -3.2010 h1        1 MOL      0.121128
    168 H76        -6.7110    6.3190   -3.2230 hn        1 MOL      0.248777
    169 Ca1         5.9950    0.2930   -1.6790 Ca        1 MOL      1.724214
    170 O24         3.2820   -0.1320   -1.7200 oh        1 MOL     -0.798119
    171 H77         3.0050   -0.8820   -2.2450 ho        1 MOL      0.397573
    172 H78         2.4860    0.1550   -1.2660 ho        1 MOL      0.397573
    173 O25         4.6490    1.1950   -4.1710 oh        1 MOL     -0.798119
    174 H79         5.2430    1.5480   -4.8260 ho        1 MOL      0.397573
    175 H80         3.8010    1.5930   -4.3750 ho        1 MOL      0.397573
    176 O26         8.2370   -1.0840   -2.6160 oh        1 MOL     -0.798119
    177 H81         8.9840   -0.5220   -2.8210 ho        1 MOL      0.397573
    178 H82         8.4510   -1.9270   -3.0190 ho        1 MOL      0.397573
    179 O27         5.3310   -1.7310   -3.5250 oh        1 MOL     -0.798119
    180 H83         5.9970   -2.3190   -3.8890 ho        1 MOL      0.397573
    181 H84         4.5760   -2.2840   -3.3550 ho        1 MOL      0.397573
    182 O28         4.1480    2.5520   -1.1800 oh        1 MOL     -0.798119
    183 H85         4.3240    2.4340   -0.2520 ho        1 MOL      0.397573
    184 H86         3.2220    2.3080   -1.2730 ho        1 MOL      0.397573
@<TRIPOS>BOND
     1    1    2 1   
     2    1    4 1   
     3    1    5 1   
     4    1    6 1   
     5    2    3 2   
     6    2    7 1   
     7    7    8 1   
     8    7   15 1   
     9    8    9 1   
    10    8   11 1   
    11    8   16 1   
    12    9   10 2   
    13    9   19 1   
    14   11   12 1   
    15   11   17 1   
    16   11   18 1   
    17   12   13 1   
    18   12   14 1   
    19   19   20 1   
    20   19   24 1   
    21   20   21 1   
    22   20   23 1   
    23   20   25 1   
    24   21   22 2   
    25   21   29 1   
    26   23   26 1   
    27   23   27 1   
    28   23   28 1   
    29   29   30 1   
    30   29   37 1   
    31   30   31 1   
    32   30   33 1   
    33   30   38 1   
    34   31   32 2   
    35   31   41 1   
    36   33   34 1   
    37   33   39 1   
    38   33   40 1   
    39   34   35 1   
    40   34   36 1   
    41   41   42 1   
    42   41   45 1   
    43   42   43 1   
    44   42   46 1   
    45   42   47 1   
    46   43   44 2   
    47   43   48 1   
    48   48   49 1   
    49   48   56 1   
    50   49   50 1   
    51   49   52 1   
    52   49   57 1   
    53   50   51 2   
    54   50   62 1   
    55   52   53 1   
    56   52   58 1   
    57   52   59 1   
    58   53   54 1   
    59   53   55 2   
    60   54   60 1   
    61   54   61 1   
    62   62   63 1   
    63   62   66 1   
    64   63   64 1   
    65   63   67 1   
    66   63   68 1   
    67   64   65 2   
    68   64   69 1   
    69   69   70 1   
    70   69   76 1   
    71   70   71 1   
    72   70   73 1   
    73   70   77 1   
    74   71   72 2   
    75   71   83 1   
    76   73   74 1   
    77   73   75 1   
    78   73   78 1   
    79   74   80 1   
    80   74   81 1   
    81   74   82 1   
    82   75   79 1   
    83   83   84 1   
    84   83   91 1   
    85   84   85 1   
    86   84   87 1   
    87   84   92 1   
    88   85   86 2   
    89   85  102 1   
    90   87   88 1   
    91   87   89 1   
    92   87   93 1   
    93   88   90 1   
    94   88   94 1   
    95   88   95 1   
    96   89   96 1   
    97   89   97 1   
    98   89   98 1   
    99   90   99 1   
   100   90  100 1   
   101   90  101 1   
   102  102  103 1   
   103  102  110 1   
   104  103  104 1   
   105  103  106 1   
   106  103  111 1   
   107  104  105 2   
   108  104  114 1   
   109  106  107 1   
   110  106  112 1   
   111  106  113 1   
   112  107  108 1   
   113  107  109 1   
   114  114  115 1   
   115  114  125 1   
   116  115  116 1   
   117  115  118 1   
   118  115  126 1   
   119  116  117 2   
   120  116  134 1   
   121  118  119 1   
   122  118  127 1   
   123  118  128 1   
   124  119  120 ar  
   125  119  121 ar  
   126  120  122 ar  
   127  120  129 1   
   128  121  123 ar  
   129  121  130 1   
   130  122  124 ar  
   131  122  131 1   
   132  123  124 ar  
   133  123  132 1   
   134  124  133 1   
   135  134  135 1   
   136  134  140 1   
   137  135  136 1   
   138  135  138 1   
   139  135  141 1   
   140  136  137 2   
   141  136  148 1   
   142  138  139 1   
   143  138  142 1   
   144  138  143 1   
   145  139  140 1   
   146  139  144 1   
   147  139  145 1   
   148  140  146 1   
   149  140  147 1   
   150  148  149 1   
   151  148  157 1   
   152  149  150 1   
   153  149  152 1   
   154  149  158 1   
   155  150  151 2   
   156  150  163 1   
   157  152  153 1   
   158  152  159 1   
   159  152  160 1   
   160  153  154 1   
   161  153  161 1   
   162  153  162 1   
   163  154  155 1   
   164  154  156 1   
   165  163  164 1   
   166  163  168 1   
   167  164  165 1   
   168  164  166 1   
   169  164  167 1   
   170  170  171 1   
   171  170  172 1   
   172  173  174 1   
   173  173  175 1   
   174  176  177 1   
   175  176  178 1   
   176  179  180 1   
   177  179  181 1   
   178  182  183 1   
   179  182  184 1   
@<TRIPOS>SUBSTRUCTURE
     1 MOL         1 TEMP              0 ****  ****    0 ROOT
