@<TRIPOS>MOLECULE
MOL
  192   187     1     0     0
SMALL
resp


@<TRIPOS>ATOM
      1 C1         -9.1800    1.1920   -1.7140 c3        1 MOL     -0.603567
      2 C2         -8.1290    0.2840   -1.0680 c         1 MOL      0.717627
      3 O1         -7.1360   -0.1130   -1.7580 o         1 MOL     -0.664730
      4 H1         -8.7200    2.1410   -1.9860 hc        1 MOL      0.166642
      5 H2         -9.5760    0.7110   -2.6080 hc        1 MOL      0.166642
      6 H3         -9.9910    1.3700   -1.0060 hc        1 MOL      0.166642
      7 N1         -8.3420   -0.1590    0.1570 n         1 MOL     -0.494232
      8 C3         -7.2200   -0.4780    1.1430 c3        1 MOL      0.033885
      9 C4         -6.7180   -1.9930    1.1530 c         1 MOL      0.541147
     10 O2         -6.8220   -2.6460    2.1660 o         1 MOL     -0.437258
     11 C5         -7.7710   -0.0190    2.4640 c3        1 MOL     -0.249780
     12 C6         -9.1770   -0.4550    2.7850 c         1 MOL      0.797923
     13 O3        -10.0610    0.3930    2.7490 o         1 MOL     -0.670885
     14 O4         -9.4430   -1.6180    3.1470 o         1 MOL     -0.670885
     15 H4         -9.1790    0.0980    0.6570 hn        1 MOL      0.241684
     16 H5         -6.3830    0.2130    1.1050 h1        1 MOL      0.156660
     17 H6         -7.8080    1.0680    2.5360 hc        1 MOL      0.059504
     18 H7         -7.1370   -0.4810    3.2070 hc        1 MOL      0.059504
     19 N2         -6.3380   -2.4810   -0.0100 n         1 MOL     -0.444068
     20 C7         -5.8510   -3.8440   -0.1590 c3        1 MOL      0.041886
     21 C8         -4.3770   -3.9840    0.2670 c         1 MOL      0.523904
     22 O5         -3.9550   -5.0620    0.8260 o         1 MOL     -0.564193
     23 C9         -6.0780   -4.4610   -1.5370 c3        1 MOL     -0.031953
     24 C10        -7.5960   -4.5230   -1.8340 c3        1 MOL     -0.130194
     25 C11        -8.0490   -5.4080   -2.9980 c3        1 MOL      0.037046
     26 C12        -9.4410   -5.0740   -3.4150 c3        1 MOL     -0.080400
     27 N3         -9.7900   -5.6380   -4.7720 n4        1 MOL     -0.132794
     28 H8         -6.5000   -1.9040   -0.8220 hn        1 MOL      0.300760
     29 H9         -6.3320   -4.4550    0.6080 h1        1 MOL      0.080407
     30 H10        -5.7960   -5.5160   -1.5000 hc        1 MOL      0.025141
     31 H11        -5.5830   -4.1100   -2.4440 hc        1 MOL      0.025141
     32 H12        -8.0530   -3.5380   -1.8460 hc        1 MOL      0.073737
     33 H13        -8.0360   -5.0480   -0.9940 hc        1 MOL      0.073737
     34 H14        -8.0120   -6.4460   -2.6650 hc        1 MOL      0.031279
     35 H15        -7.3900   -5.2940   -3.8620 hc        1 MOL      0.031279
     36 H16        -9.4730   -3.9810   -3.4230 hx        1 MOL      0.101491
     37 H17       -10.0700   -5.5110   -2.6370 hx        1 MOL      0.101491
     38 H18        -9.1030   -5.5240   -5.4960 hn        1 MOL      0.212404
     39 H19        -9.8580   -6.6420   -4.6810 hn        1 MOL      0.212404
     40 H20       -10.6500   -5.2560   -5.1350 hn        1 MOL      0.212404
     41 N4         -3.4720   -3.0440    0.0320 n         1 MOL     -0.430161
     42 C13        -3.5850   -1.9060   -0.8720 c3        1 MOL      0.103983
     43 C14        -3.7930   -0.6180   -0.1020 c         1 MOL      0.042910
     44 O6         -3.8600   -0.5530    1.1120 o         1 MOL     -0.393914
     45 C15        -2.3230   -1.8450   -1.7640 c3        1 MOL     -0.326855
     46 C16        -1.0110   -1.8930   -0.9200 c         1 MOL      0.945205
     47 O7         -0.7790   -0.8830   -0.2170 o         1 MOL     -0.766352
     48 O8         -0.2140   -2.8440   -0.9060 o         1 MOL     -0.766352
     49 H21        -2.5520   -3.1470    0.4530 hn        1 MOL      0.354203
     50 H22        -4.4860   -1.9890   -1.4780 h1        1 MOL      0.110956
     51 H23        -2.4610   -1.0050   -2.4580 hc        1 MOL      0.066844
     52 H24        -2.3820   -2.6880   -2.4560 hc        1 MOL      0.066844
     53 N5         -4.1240    0.4370   -0.8390 n         1 MOL     -0.176680
     54 C17        -4.3850    1.7810   -0.4330 c3        1 MOL     -0.007270
     55 C18        -3.2980    2.4180    0.3740 c         1 MOL      0.378512
     56 O9         -2.1210    2.0320    0.2970 o         1 MOL     -0.356599
     57 H25        -4.4350    0.2240   -1.7700 hn        1 MOL      0.252382
     58 H26        -5.3360    1.7300    0.1010 h1        1 MOL      0.044222
     59 H27        -4.5330    2.4700   -1.2680 h1        1 MOL      0.044222
     60 N6         -3.6900    3.4730    1.0670 n         1 MOL     -0.278156
     61 C19        -2.8780    4.4110    1.8620 c3        1 MOL      0.018819
     62 C20        -3.3680    5.8800    1.6670 c         1 MOL      0.529364
     63 O10        -4.5310    6.1170    1.3300 o         1 MOL     -0.548624
     64 C21        -2.7430    3.8940    3.3230 c3        1 MOL     -0.290893
     65 C22        -2.0740    2.5310    3.4040 c         1 MOL      0.705048
     66 O11        -0.9060    2.3800    3.0040 o         1 MOL     -0.684011
     67 O12        -2.7130    1.7220    4.0450 o         1 MOL     -0.684011
     68 H28        -4.6650    3.7240    1.0420 hn        1 MOL      0.249251
     69 H29        -1.8990    4.3490    1.3780 h1        1 MOL      0.064781
     70 H30        -3.7510    3.8210    3.7170 hc        1 MOL      0.099922
     71 H31        -2.0700    4.5320    3.8930 hc        1 MOL      0.099922
     72 N7         -2.5390    6.8930    1.7530 n         1 MOL     -0.495638
     73 C23        -1.1150    6.7730    2.0130 c3        1 MOL      0.046995
     74 C24        -0.3550    6.3330    0.7010 c         1 MOL      0.607969
     75 O13        -0.6690    6.5580   -0.4490 o         1 MOL     -0.527267
     76 H32        -2.8910    7.8320    1.6120 hn        1 MOL      0.330895
     77 H33        -0.9480    5.9820    2.7390 h1        1 MOL      0.051197
     78 H34        -0.6590    7.6400    2.4820 h1        1 MOL      0.051197
     79 N8          0.8110    5.7210    0.9600 n         1 MOL     -0.737702
     80 C25         1.6230    5.2590   -0.1760 c3        1 MOL      0.235254
     81 C26         1.1650    3.8680   -0.7440 c         1 MOL      0.833966
     82 O14         0.6950    3.0360    0.0260 o         1 MOL     -0.848241
     83 C27         3.1020    5.2480    0.2790 c3        1 MOL      0.519797
     84 C28         3.5590    6.6940    0.5190 c3        1 MOL     -0.400724
     85 O15         3.8880    4.7610   -0.7970 oh        1 MOL     -0.721562
     86 H35         1.0670    5.4190    1.8970 hn        1 MOL      0.332115
     87 H36         1.6040    5.9450   -1.0190 h1        1 MOL      0.015397
     88 H37         3.2390    4.6530    1.1810 h1        1 MOL     -0.033145
     89 H38         4.1850    3.8540   -0.7200 ho        1 MOL      0.366759
     90 H39         3.1040    7.0050    1.4530 hc        1 MOL      0.102727
     91 H40         4.6340    6.6650    0.7160 hc        1 MOL      0.102727
     92 H41         3.2920    7.3480   -0.3110 hc        1 MOL      0.102727
     93 N9          1.3210    3.6840   -2.0720 n         1 MOL     -0.553412
     94 C29         1.1970    2.4330   -2.8500 c3        1 MOL      0.010592
     95 C30         1.8420    1.1490   -2.2390 c         1 MOL      0.364029
     96 O16         1.8910    0.8500   -1.0490 o         1 MOL     -0.419885
     97 C31        -0.3560    2.1240   -3.0940 c3        1 MOL      0.566594
     98 C32        -1.1060    3.3500   -3.6530 c3        1 MOL     -0.453904
     99 C33        -0.5740    1.0410   -4.1450 c3        1 MOL     -0.299880
    100 C34        -0.8850    3.8470   -5.0550 c3        1 MOL      0.085327
    101 H42         1.7410    4.5070   -2.4880 hn        1 MOL      0.262558
    102 H43         1.6750    2.6760   -3.7940 h1        1 MOL      0.070818
    103 H44        -0.9040    1.8220   -2.2000 hc        1 MOL     -0.182157
    104 H45        -0.9130    4.1560   -2.9320 hc        1 MOL      0.126282
    105 H46        -2.1780    3.1700   -3.6140 hc        1 MOL      0.126282
    106 H47        -0.4930    0.0370   -3.7110 hc        1 MOL      0.060343
    107 H48        -1.5640    1.1030   -4.5950 hc        1 MOL      0.060343
    108 H49         0.1360    1.2120   -4.9470 hc        1 MOL      0.060343
    109 H50         0.1690    3.7300   -5.3060 hc        1 MOL     -0.011281
    110 H51        -1.4110    3.2800   -5.8100 hc        1 MOL     -0.011281
    111 H52        -1.1060    4.8880   -5.2770 hc        1 MOL     -0.011281
    112 N10         2.4770    0.4420   -3.1420 n         1 MOL     -0.384963
    113 C35         3.0510   -0.8770   -2.7700 c3        1 MOL     -0.075298
    114 C36         4.6060   -1.0270   -2.6910 c         1 MOL      0.327816
    115 O17         5.1840   -2.0570   -3.0820 o         1 MOL     -0.547474
    116 C37         2.4710   -1.9360   -3.8180 c3        1 MOL      0.530919
    117 C38         2.6030   -1.5470   -5.2940 c3        1 MOL     -0.396070
    118 O18         1.1010   -2.0650   -3.6880 oh        1 MOL     -0.577801
    119 H53         2.5790    0.8090   -4.0850 hn        1 MOL      0.272123
    120 H54         2.7280   -1.1870   -1.7800 h1        1 MOL      0.083150
    121 H55         2.8910   -2.9100   -3.5730 h1        1 MOL     -0.022884
    122 H56         0.9660   -2.1520   -2.7420 ho        1 MOL      0.311290
    123 H57         1.7840   -0.8880   -5.5790 hc        1 MOL      0.089893
    124 H58         3.4610   -0.9370   -5.5800 hc        1 MOL      0.089893
    125 H59         2.5750   -2.4790   -5.8630 hc        1 MOL      0.089893
    126 N11         5.2640    0.0710   -2.3770 n         1 MOL     -0.010781
    127 C39         6.7270    0.1710   -2.4750 c3        1 MOL     -0.071077
    128 C40         7.4940   -0.5440   -1.3570 c         1 MOL      0.578993
    129 O19         8.2000    0.0970   -0.5480 o         1 MOL     -0.500811
    130 C41         7.1840    1.6150   -2.5970 c3        1 MOL      0.229496
    131 C42         6.6560    2.1350   -3.9240 c3        1 MOL     -0.171000
    132 O20         6.5160    2.4660   -1.6210 oh        1 MOL     -0.636227
    133 H60         4.7350    0.9060   -2.1650 hn        1 MOL      0.194132
    134 H61         7.1180   -0.2650   -3.3940 h1        1 MOL      0.071119
    135 H62         8.2780    1.6860   -2.5250 h1        1 MOL      0.060208
    136 H63         6.4180    3.3680   -1.9210 ho        1 MOL      0.423576
    137 H64         6.8990    1.4980   -4.7880 hc        1 MOL      0.032433
    138 H65         5.5720    2.0660   -4.0160 hc        1 MOL      0.032433
    139 H66         7.0600    3.1220   -4.1360 hc        1 MOL      0.032433
    140 N12         7.3150   -1.8790   -1.1940 n         1 MOL     -0.682515
    141 C43         7.0720   -2.3750    0.1800 c3        1 MOL      0.342054
    142 C44         5.7280   -1.8380    0.8100 c         1 MOL      0.640575
    143 O21         5.2380   -0.7960    0.4330 o         1 MOL     -0.522227
    144 C45         8.3670   -2.3050    1.1740 c3        1 MOL     -0.580553
    145 C46         9.6850   -2.6720    0.3970 c3        1 MOL      0.264946
    146 C47        10.8790   -2.4800    1.3160 c3        1 MOL     -0.051009
    147 C48        12.2150   -2.4490    0.4670 c3        1 MOL     -0.052857
    148 N13        12.9510   -3.7230    0.7420 n4        1 MOL     -0.275358
    149 H67         6.8070   -2.3680   -1.9130 hn        1 MOL      0.350404
    150 H68         7.0040   -3.4500    0.0240 h1        1 MOL      0.016519
    151 H69         8.1940   -3.0730    1.9310 hc        1 MOL      0.161099
    152 H70         8.4300   -1.2870    1.5470 hc        1 MOL      0.161099
    153 H71         9.7880   -2.1530   -0.5650 hc        1 MOL     -0.030719
    154 H72         9.6370   -3.7150    0.0920 hc        1 MOL     -0.030719
    155 H73        10.8470   -3.2150    2.1180 hc        1 MOL      0.053692
    156 H74        10.7720   -1.5190    1.8150 hc        1 MOL      0.053692
    157 H75        12.8110   -1.5810    0.7370 hx        1 MOL      0.110055
    158 H76        12.0740   -2.4330   -0.6180 hx        1 MOL      0.110055
    159 H77        13.9130   -3.6110    0.4630 hn        1 MOL      0.245210
    160 H78        13.0020   -3.8380    1.7450 hn        1 MOL      0.245210
    161 H79        12.5130   -4.5210    0.2970 hn        1 MOL      0.245210
    162 N14         5.1520   -2.6600    1.6670 n         1 MOL     -0.864442
    163 C49         3.8300   -2.3920    2.2860 c3        1 MOL      0.585285
    164 C50         2.7180   -2.1860    1.1910 c         1 MOL      0.199232
    165 O22         2.0710   -1.1450    1.2650 o         1 MOL     -0.634648
    166 C51         3.2940   -3.3900    3.3590 c3        1 MOL      0.001100
    167 C52         3.8010   -2.9910    4.7250 c3        1 MOL     -0.316791
    168 C53         3.5910   -4.1040    5.7900 c         1 MOL      0.747642
    169 O23         3.5010   -3.7490    7.0060 o         1 MOL     -0.649200
    170 O24         3.6010   -5.2970    5.5010 o         1 MOL     -0.649200
    171 H80         5.7100   -3.3900    2.0730 hn        1 MOL      0.363225
    172 H81         3.8580   -1.3910    2.7300 h1        1 MOL     -0.005453
    173 H82         3.6540   -4.4080    3.2130 hc        1 MOL      0.037440
    174 H83         2.2070   -3.4410    3.4180 hc        1 MOL      0.037440
    175 H84         3.2330   -2.1020    4.9940 hc        1 MOL      0.046548
    176 H85         4.8610   -2.7420    4.6910 hc        1 MOL      0.046548
    177 N15         2.3860   -3.0710    0.2310 n         1 MOL     -0.149582
    178 C54         2.7740   -4.4500    0.1070 c3        1 MOL     -0.033185
    179 H86         1.9860   -5.0040   -0.4030 h1        1 MOL      0.026822
    180 H87         3.6970   -4.5170   -0.4690 h1        1 MOL      0.026822
    181 H88         2.9320   -4.8740    1.0980 h1        1 MOL      0.026822
    182 H89         1.5440   -2.8180   -0.2640 hn        1 MOL      0.330341
    183 Ca1         0.3600    0.7850    1.3210 Ca        1 MOL      1.802409
    184 O25         0.9820    0.2950    4.0210 oh        1 MOL     -0.864173
    185 H90         1.5810    0.1160    4.7360 ho        1 MOL      0.419541
    186 H91         0.1610    0.5690    4.4500 ho        1 MOL      0.419541
    187 O26         2.7710    2.0640    1.9570 oh        1 MOL     -0.864173
    188 H92         3.4830    1.9720    1.3270 ho        1 MOL      0.419541
    189 H93         3.2180    2.0990    2.8080 ho        1 MOL      0.419541
    190 O27        -1.4540   -0.7050    2.6130 oh        1 MOL     -0.864173
    191 H94        -1.8770   -0.2470    3.3440 ho        1 MOL      0.419541
    192 H95        -2.1490   -0.7750    1.9550 ho        1 MOL      0.419541
@<TRIPOS>BOND
     1    1    2 1   
     2    1    4 1   
     3    1    5 1   
     4    1    6 1   
     5    2    3 2   
     6    2    7 1   
     7    7    8 1   
     8    7   15 1   
     9    8    9 1   
    10    8   11 1   
    11    8   16 1   
    12    9   10 2   
    13    9   19 1   
    14   11   12 1   
    15   11   17 1   
    16   11   18 1   
    17   12   13 1   
    18   12   14 1   
    19   19   20 1   
    20   19   28 1   
    21   20   21 1   
    22   20   23 1   
    23   20   29 1   
    24   21   22 2   
    25   21   41 1   
    26   23   24 1   
    27   23   30 1   
    28   23   31 1   
    29   24   25 1   
    30   24   32 1   
    31   24   33 1   
    32   25   26 1   
    33   25   34 1   
    34   25   35 1   
    35   26   27 1   
    36   26   36 1   
    37   26   37 1   
    38   27   38 1   
    39   27   39 1   
    40   27   40 1   
    41   41   42 1   
    42   41   49 1   
    43   42   43 1   
    44   42   45 1   
    45   42   50 1   
    46   43   44 2   
    47   43   53 1   
    48   45   46 1   
    49   45   51 1   
    50   45   52 1   
    51   46   47 1   
    52   46   48 1   
    53   53   54 1   
    54   53   57 1   
    55   54   55 1   
    56   54   58 1   
    57   54   59 1   
    58   55   56 2   
    59   55   60 1   
    60   60   61 1   
    61   60   68 1   
    62   61   62 1   
    63   61   64 1   
    64   61   69 1   
    65   62   63 2   
    66   62   72 1   
    67   64   65 1   
    68   64   70 1   
    69   64   71 1   
    70   65   66 1   
    71   65   67 1   
    72   72   73 1   
    73   72   76 1   
    74   73   74 1   
    75   73   77 1   
    76   73   78 1   
    77   74   75 2   
    78   74   79 1   
    79   79   80 1   
    80   79   86 1   
    81   80   81 1   
    82   80   83 1   
    83   80   87 1   
    84   81   82 2   
    85   81   93 1   
    86   83   84 1   
    87   83   85 1   
    88   83   88 1   
    89   84   90 1   
    90   84   91 1   
    91   84   92 1   
    92   85   89 1   
    93   93   94 1   
    94   93  101 1   
    95   94   95 1   
    96   94   97 1   
    97   94  102 1   
    98   95   96 2   
    99   95  112 1   
   100   97   98 1   
   101   97   99 1   
   102   97  103 1   
   103   98  100 1   
   104   98  104 1   
   105   98  105 1   
   106   99  106 1   
   107   99  107 1   
   108   99  108 1   
   109  100  109 1   
   110  100  110 1   
   111  100  111 1   
   112  112  113 1   
   113  112  119 1   
   114  113  114 1   
   115  113  116 1   
   116  113  120 1   
   117  114  115 2   
   118  114  126 1   
   119  116  117 1   
   120  116  118 1   
   121  116  121 1   
   122  117  123 1   
   123  117  124 1   
   124  117  125 1   
   125  118  122 1   
   126  126  127 1   
   127  126  133 1   
   128  127  128 1   
   129  127  130 1   
   130  127  134 1   
   131  128  129 2   
   132  128  140 1   
   133  130  131 1   
   134  130  132 1   
   135  130  135 1   
   136  131  137 1   
   137  131  138 1   
   138  131  139 1   
   139  132  136 1   
   140  140  141 1   
   141  140  149 1   
   142  141  142 1   
   143  141  144 1   
   144  141  150 1   
   145  142  143 2   
   146  142  162 1   
   147  144  145 1   
   148  144  151 1   
   149  144  152 1   
   150  145  146 1   
   151  145  153 1   
   152  145  154 1   
   153  146  147 1   
   154  146  155 1   
   155  146  156 1   
   156  147  148 1   
   157  147  157 1   
   158  147  158 1   
   159  148  159 1   
   160  148  160 1   
   161  148  161 1   
   162  162  163 1   
   163  162  171 1   
   164  163  164 1   
   165  163  166 1   
   166  163  172 1   
   167  164  165 2   
   168  164  177 1   
   169  166  167 1   
   170  166  173 1   
   171  166  174 1   
   172  167  168 1   
   173  167  175 1   
   174  167  176 1   
   175  168  169 1   
   176  168  170 1   
   177  177  178 1   
   178  177  182 1   
   179  178  179 1   
   180  178  180 1   
   181  178  181 1   
   182  184  185 1   
   183  184  186 1   
   184  187  188 1   
   185  187  189 1   
   186  190  191 1   
   187  190  192 1   
@<TRIPOS>SUBSTRUCTURE
     1 MOL         1 TEMP              0 ****  ****    0 ROOT
