@<TRIPOS>MOLECULE
MOL
  184   179     1     0     0
SMALL
resp


@<TRIPOS>ATOM
      1 C1         -2.1880   -1.0420    3.9490 c3        1 MOL     -0.501145
      2 C2         -1.5380   -2.4360    3.6590 c         1 MOL      0.671750
      3 O1         -0.4920   -2.6220    3.0990 o         1 MOL     -0.585336
      4 H1         -3.2120   -1.1840    4.2950 hc        1 MOL      0.132379
      5 H2         -1.6130   -0.5250    4.7180 hc        1 MOL      0.132379
      6 H3         -2.1940   -0.4470    3.0360 hc        1 MOL      0.132379
      7 N1         -2.2770   -3.5500    3.8910 n         1 MOL     -0.428337
      8 C3         -1.8410   -4.9280    3.7120 c3        1 MOL      0.081023
      9 C4         -2.1940   -5.5430    2.3860 c         1 MOL      0.634152
     10 O2         -1.4970   -6.3450    1.8050 o         1 MOL     -0.601428
     11 C5         -2.2990   -5.8800    4.9070 c3        1 MOL     -0.339577
     12 C6         -3.7750   -5.6880    5.2790 c         1 MOL      0.730423
     13 O3         -4.5420   -4.8000    4.8190 o         1 MOL     -0.693419
     14 O4         -4.1710   -6.3890    6.2100 o         1 MOL     -0.693419
     15 H4         -3.1780   -3.5140    4.3600 hn        1 MOL      0.243288
     16 H5         -0.7560   -4.8660    3.7150 h1        1 MOL      0.041532
     17 H6         -1.6980   -5.7310    5.8090 hc        1 MOL      0.084742
     18 H7         -2.1130   -6.9060    4.6040 hc        1 MOL      0.084742
     19 N2         -3.4080   -5.1070    1.9810 n         1 MOL     -0.461478
     20 C7         -3.9330   -5.1490    0.5760 c3        1 MOL      0.265364
     21 C8         -2.8320   -4.6060   -0.4600 c         1 MOL      0.464799
     22 O5         -2.6860   -3.3660   -0.5870 o         1 MOL     -0.604710
     23 C9         -4.5930   -6.4490    0.2320 c3        1 MOL     -0.428057
     24 H8         -3.8930   -4.5920    2.6990 hn        1 MOL      0.208304
     25 H9         -4.8050   -4.4970    0.4850 h1        1 MOL      0.111192
     26 H10        -5.4750   -6.5590    0.8640 hc        1 MOL      0.102554
     27 H11        -5.0380   -6.3740   -0.7610 hc        1 MOL      0.102554
     28 H12        -3.8460   -7.2370    0.2990 hc        1 MOL      0.102554
     29 N3         -2.0160   -5.4400   -1.1320 n         1 MOL     -0.355371
     30 C10        -1.0820   -4.9750   -2.1710 c3        1 MOL      0.011569
     31 C11         0.0580   -5.9070   -2.2190 c         1 MOL      0.584080
     32 O6          0.5270   -6.3560   -3.2690 o         1 MOL     -0.511229
     33 C12        -1.7540   -5.0330   -3.5510 c3        1 MOL     -0.256909
     34 C13        -3.0950   -4.2720   -3.7000 c         1 MOL      0.715475
     35 O7         -3.2460   -3.0890   -3.3030 o         1 MOL     -0.712638
     36 O8         -4.0560   -4.9130   -4.1920 o         1 MOL     -0.712638
     37 H13        -2.2170   -6.4090   -0.9070 hn        1 MOL      0.233597
     38 H14        -0.7040   -3.9860   -1.9010 h1        1 MOL      0.132038
     39 H15        -2.0090   -6.0310   -3.9020 hc        1 MOL      0.067874
     40 H16        -1.1000   -4.6900   -4.3570 hc        1 MOL      0.067874
     41 N4          0.6850   -6.1300   -1.0180 n         1 MOL     -0.342816
     42 C14         1.9880   -6.7390   -0.8590 c3        1 MOL     -0.197524
     43 C15         3.1020   -5.8010   -1.1530 c         1 MOL      0.707543
     44 O9          4.1450   -6.2730   -1.6260 o         1 MOL     -0.598225
     45 H17         0.2440   -5.8070   -0.1690 hn        1 MOL      0.264286
     46 H18         2.1380   -7.5670   -1.5570 h1        1 MOL      0.093403
     47 H19         2.0630   -7.1400    0.1490 h1        1 MOL      0.093403
     48 N5          2.8830   -4.4740   -1.0450 n         1 MOL     -0.475402
     49 C16         3.7910   -3.4220   -1.6940 c3        1 MOL      0.083160
     50 C17         4.9480   -3.0530   -0.7820 c         1 MOL      0.401866
     51 O10         4.8640   -3.0690    0.4840 o         1 MOL     -0.494813
     52 C18         2.9490   -2.2230   -2.0340 c3        1 MOL     -0.233668
     53 C19         2.0130   -2.3800   -3.2040 c         1 MOL      0.647404
     54 N6          0.7740   -2.0280   -3.0010 n         1 MOL     -0.767423
     55 O11         2.3190   -2.9700   -4.2440 o         1 MOL     -0.589903
     56 H20         1.9620   -4.1710   -0.7710 hn        1 MOL      0.274568
     57 H21         4.2400   -3.7590   -2.6240 h1        1 MOL      0.066315
     58 H22         3.6010   -1.3810   -2.2800 hc        1 MOL      0.098907
     59 H23         2.3680   -1.9090   -1.1700 hc        1 MOL      0.098907
     60 H24         0.4120   -1.6140   -2.1520 hn        1 MOL      0.347834
     61 H25         0.1260   -2.0700   -3.7710 hn        1 MOL      0.347834
     62 N7          6.1180   -2.9540   -1.4320 n         1 MOL     -0.285062
     63 C20         7.2920   -2.5690   -0.7430 c3        1 MOL     -0.138536
     64 C21         7.4990   -1.0450   -0.6710 c         1 MOL      0.528590
     65 O12         7.3350   -0.3430   -1.6480 o         1 MOL     -0.536851
     66 H26         6.1290   -2.9470   -2.4380 hn        1 MOL      0.275377
     67 H27         8.1180   -3.0630   -1.2640 h1        1 MOL      0.094356
     68 H28         7.3010   -2.8950    0.3000 h1        1 MOL      0.094356
     69 N8          7.9390   -0.4320    0.3860 n         1 MOL     -0.402516
     70 C22         8.2470    1.0380    0.5190 c3        1 MOL     -0.153446
     71 C23         7.0950    1.9070    0.9820 c         1 MOL      0.432754
     72 O13         7.2260    3.1190    1.0890 o         1 MOL     -0.583361
     73 C24         9.4050    1.3070    1.4240 c3        1 MOL      0.388444
     74 C25         9.1120    1.0440    2.9270 c3        1 MOL     -0.264910
     75 O14        10.4770    0.4100    0.9790 oh        1 MOL     -0.638666
     76 H29         8.1270   -1.0610    1.1470 hn        1 MOL      0.242420
     77 H30         8.5670    1.4320   -0.4470 h1        1 MOL      0.169234
     78 H31         9.7960    2.3080    1.2690 h1        1 MOL      0.060916
     79 H32        10.2330   -0.5170    1.0670 ho        1 MOL      0.369767
     80 H33         8.6310    1.8800    3.4250 hc        1 MOL      0.064547
     81 H34         8.3320    0.3020    3.1330 hc        1 MOL      0.064547
     82 H35        10.0340    0.7910    3.4460 hc        1 MOL      0.064547
     83 N9          5.9220    1.4110    1.3210 n         1 MOL     -0.072480
     84 C26         4.6070    2.1060    1.3320 c3        1 MOL     -0.039579
     85 C27         3.4950    1.4090    0.5440 c         1 MOL      0.117512
     86 O15         3.7910    0.3280    0.1000 o         1 MOL     -0.325394
     87 C28         4.2340    2.3820    2.8390 c3        1 MOL     -0.121214
     88 C29         4.1470    1.2240    3.8720 c3        1 MOL     -0.030890
     89 C30         5.1230    3.4360    3.4790 c3        1 MOL     -0.321592
     90 C31         3.1050    0.1900    3.4480 c3        1 MOL     -0.141290
     91 H36         5.7900    0.4140    1.2690 hn        1 MOL      0.178895
     92 H37         4.7390    3.0910    0.8720 h1        1 MOL      0.193307
     93 H38         3.1960    2.7070    2.8420 hc        1 MOL      0.060916
     94 H39         3.8700    1.4820    4.8880 hc        1 MOL      0.035733
     95 H40         5.1560    0.8600    4.0130 hc        1 MOL      0.035733
     96 H41         5.2310    4.3650    2.9220 hc        1 MOL      0.090360
     97 H42         4.7200    3.6590    4.4670 hc        1 MOL      0.090360
     98 H43         6.1100    3.0620    3.7430 hc        1 MOL      0.090360
     99 H44         2.8070   -0.4960    4.2380 hc        1 MOL      0.059113
    100 H45         2.2000    0.7200    3.1210 hc        1 MOL      0.059113
    101 H46         3.4800   -0.3590    2.5910 hc        1 MOL      0.059113
    102 N10         2.3330    2.0170    0.1400 n         1 MOL     -0.015847
    103 C32         1.3150    1.4130   -0.7700 c3        1 MOL     -0.096444
    104 C33         0.5680    2.4000   -1.7170 c         1 MOL      0.427990
    105 O16         0.3560    1.9960   -2.8820 o         1 MOL     -0.497333
    106 C34         0.2770    0.7580    0.2230 c3        1 MOL     -0.394504
    107 C35        -0.9740    0.2250   -0.5350 c         1 MOL      0.926524
    108 O17        -0.8910   -0.9630   -0.9750 o         1 MOL     -0.758661
    109 O18        -2.0700    0.7680   -0.6120 o         1 MOL     -0.758661
    110 H47         2.1990    2.9800    0.4300 hn        1 MOL      0.141267
    111 H48         1.7520    0.6110   -1.3650 h1        1 MOL      0.113835
    112 H49         0.0740    1.4850    1.0090 hc        1 MOL      0.105174
    113 H50         0.8060   -0.0390    0.7450 hc        1 MOL      0.105174
    114 N11         0.1430    3.5530   -1.2320 n         1 MOL     -0.428569
    115 C36        -0.5150    4.4830   -2.1050 c3        1 MOL      0.235570
    116 C37        -1.4520    5.4270   -1.3240 c         1 MOL      0.350177
    117 O19        -1.1820    5.7690   -0.1130 o         1 MOL     -0.521990
    118 C38         0.5850    5.2500   -2.8760 c3        1 MOL     -0.422207
    119 C39         1.8280    5.4690   -1.9890 ca        1 MOL      0.202274
    120 C40         1.9260    6.4540   -1.0180 ca        1 MOL     -0.231990
    121 C41         2.8540    4.5520   -2.2170 ca        1 MOL     -0.231990
    122 C42         3.0480    6.4800   -0.2150 ca        1 MOL     -0.058665
    123 C43         4.0420    4.6240   -1.4610 ca        1 MOL     -0.058665
    124 C44         4.1310    5.6230   -0.4200 ca        1 MOL     -0.202997
    125 H51         0.3560    3.7400   -0.2620 hn        1 MOL      0.368115
    126 H52        -1.0620    3.9500   -2.8820 h1        1 MOL      0.061866
    127 H53         0.2510    6.2540   -3.1400 hc        1 MOL      0.144211
    128 H54         0.7560    4.5890   -3.7310 hc        1 MOL      0.144211
    129 H55         1.0770    7.0630   -0.7500 ha        1 MOL      0.148525
    130 H56         2.7410    3.8530   -3.0220 ha        1 MOL      0.148525
    131 H57         3.1120    7.2360    0.5540 ha        1 MOL      0.102878
    132 H58         4.9270    4.0430   -1.6940 ha        1 MOL      0.102878
    133 H59         4.9970    5.7420    0.2160 ha        1 MOL      0.139537
    134 N12        -2.5690    5.8770   -1.8790 n         1 MOL     -0.221088
    135 C45        -3.4720    6.9390   -1.2850 c3        1 MOL      0.173280
    136 C46        -3.9400    6.6110    0.1670 c         1 MOL      0.250083
    137 O20        -4.5470    7.5480    0.6450 o         1 MOL     -0.536519
    138 C47        -4.6050    7.0590   -2.3120 c3        1 MOL     -0.152871
    139 C48        -3.9750    6.5340   -3.6070 c3        1 MOL     -0.082540
    140 C49        -3.1880    5.3770   -3.0920 c3        1 MOL     -0.076211
    141 H60        -2.8640    7.8410   -1.2270 h1        1 MOL      0.069584
    142 H61        -5.5160    6.5260   -2.0680 hc        1 MOL      0.080189
    143 H62        -4.8090    8.1210   -2.4100 hc        1 MOL      0.080189
    144 H63        -4.7610    6.1700   -4.2640 hc        1 MOL      0.056166
    145 H64        -3.3560    7.2890   -4.0990 hc        1 MOL      0.056166
    146 H65        -3.8610    4.5460   -2.9040 h1        1 MOL      0.079161
    147 H66        -2.4610    5.0810   -3.8490 h1        1 MOL      0.079161
    148 N13        -3.7870    5.4240    0.7650 n         1 MOL      0.107372
    149 C50        -4.1700    5.1660    2.1660 c3        1 MOL     -0.175625
    150 C51        -2.9380    5.2110    3.0890 c         1 MOL      0.345941
    151 O21        -3.1930    5.1590    4.2520 o         1 MOL     -0.504186
    152 C52        -4.9210    3.8250    2.1330 c3        1 MOL      0.290399
    153 C53        -6.2470    3.9240    1.3670 c3        1 MOL     -0.380307
    154 C54        -6.9920    2.5990    1.4130 c         1 MOL      0.785778
    155 O22        -7.1290    1.8930    0.3590 o         1 MOL     -0.719927
    156 O23        -7.5050    2.1670    2.4700 o         1 MOL     -0.719927
    157 H67        -3.2500    4.7120    0.3080 hn        1 MOL      0.118877
    158 H68        -4.8510    5.9750    2.4240 h1        1 MOL      0.158782
    159 H69        -5.0260    3.4160    3.1290 hc        1 MOL     -0.025986
    160 H70        -4.2890    3.0790    1.6380 hc        1 MOL     -0.025986
    161 H71        -5.9720    4.2610    0.3660 hc        1 MOL      0.035384
    162 H72        -6.7760    4.7240    1.8910 hc        1 MOL      0.035384
    163 N14        -1.7120    5.4510    2.6510 n         1 MOL     -0.101975
    164 C55        -0.5320    5.8300    3.4500 c3        1 MOL     -0.216126
    165 H73         0.3750    5.5810    2.8990 h1        1 MOL      0.094158
    166 H74        -0.5560    6.9020    3.6480 h1        1 MOL      0.094158
    167 H75        -0.5420    5.2860    4.3950 h1        1 MOL      0.094158
    168 H76        -1.5930    5.3310    1.6480 hn        1 MOL      0.076481
    169 Ca1        -3.5170   -1.1540   -1.6170 Ca        1 MOL      1.777923
    170 O24        -4.9320   -0.6680   -3.9020 oh        1 MOL     -0.865704
    171 H77        -4.8170   -1.1730   -4.7050 ho        1 MOL      0.409565
    172 H78        -5.8750   -0.5070   -3.8540 ho        1 MOL      0.409565
    173 O25        -5.7000   -2.6950   -1.1820 oh        1 MOL     -0.865704
    174 H79        -5.8500   -3.5620   -1.5670 ho        1 MOL      0.409565
    175 H80        -6.5490   -2.4370   -0.8440 ho        1 MOL      0.409565
    176 O26        -1.8130   -0.3080   -3.7460 oh        1 MOL     -0.865704
    177 H81        -1.6170   -0.7500   -4.5680 ho        1 MOL      0.409565
    178 H82        -1.2970    0.4920   -3.7660 ho        1 MOL      0.409565
    179 O27        -5.6590    0.6270   -1.3610 oh        1 MOL     -0.865704
    180 H83        -6.3040    0.7370   -2.0650 ho        1 MOL      0.409565
    181 H84        -6.0160    1.1490   -0.6360 ho        1 MOL      0.409565
    182 O28        -4.3740   -1.1120    0.9090 oh        1 MOL     -0.865704
    183 H85        -4.9010   -1.8260    1.2500 ho        1 MOL      0.409565
    184 H86        -4.6670   -0.3390    1.3900 ho        1 MOL      0.409565
@<TRIPOS>BOND
     1    1    2 1   
     2    1    4 1   
     3    1    5 1   
     4    1    6 1   
     5    2    3 2   
     6    2    7 1   
     7    7    8 1   
     8    7   15 1   
     9    8    9 1   
    10    8   11 1   
    11    8   16 1   
    12    9   10 2   
    13    9   19 1   
    14   11   12 1   
    15   11   17 1   
    16   11   18 1   
    17   12   13 1   
    18   12   14 1   
    19   19   20 1   
    20   19   24 1   
    21   20   21 1   
    22   20   23 1   
    23   20   25 1   
    24   21   22 2   
    25   21   29 1   
    26   23   26 1   
    27   23   27 1   
    28   23   28 1   
    29   29   30 1   
    30   29   37 1   
    31   30   31 1   
    32   30   33 1   
    33   30   38 1   
    34   31   32 2   
    35   31   41 1   
    36   33   34 1   
    37   33   39 1   
    38   33   40 1   
    39   34   35 1   
    40   34   36 1   
    41   41   42 1   
    42   41   45 1   
    43   42   43 1   
    44   42   46 1   
    45   42   47 1   
    46   43   44 2   
    47   43   48 1   
    48   48   49 1   
    49   48   56 1   
    50   49   50 1   
    51   49   52 1   
    52   49   57 1   
    53   50   51 2   
    54   50   62 1   
    55   52   53 1   
    56   52   58 1   
    57   52   59 1   
    58   53   54 1   
    59   53   55 2   
    60   54   60 1   
    61   54   61 1   
    62   62   63 1   
    63   62   66 1   
    64   63   64 1   
    65   63   67 1   
    66   63   68 1   
    67   64   65 2   
    68   64   69 1   
    69   69   70 1   
    70   69   76 1   
    71   70   71 1   
    72   70   73 1   
    73   70   77 1   
    74   71   72 2   
    75   71   83 1   
    76   73   74 1   
    77   73   75 1   
    78   73   78 1   
    79   74   80 1   
    80   74   81 1   
    81   74   82 1   
    82   75   79 1   
    83   83   84 1   
    84   83   91 1   
    85   84   85 1   
    86   84   87 1   
    87   84   92 1   
    88   85   86 2   
    89   85  102 1   
    90   87   88 1   
    91   87   89 1   
    92   87   93 1   
    93   88   90 1   
    94   88   94 1   
    95   88   95 1   
    96   89   96 1   
    97   89   97 1   
    98   89   98 1   
    99   90   99 1   
   100   90  100 1   
   101   90  101 1   
   102  102  103 1   
   103  102  110 1   
   104  103  104 1   
   105  103  106 1   
   106  103  111 1   
   107  104  105 2   
   108  104  114 1   
   109  106  107 1   
   110  106  112 1   
   111  106  113 1   
   112  107  108 1   
   113  107  109 1   
   114  114  115 1   
   115  114  125 1   
   116  115  116 1   
   117  115  118 1   
   118  115  126 1   
   119  116  117 2   
   120  116  134 1   
   121  118  119 1   
   122  118  127 1   
   123  118  128 1   
   124  119  120 ar  
   125  119  121 ar  
   126  120  122 ar  
   127  120  129 1   
   128  121  123 ar  
   129  121  130 1   
   130  122  124 ar  
   131  122  131 1   
   132  123  124 ar  
   133  123  132 1   
   134  124  133 1   
   135  134  135 1   
   136  134  140 1   
   137  135  136 1   
   138  135  138 1   
   139  135  141 1   
   140  136  137 2   
   141  136  148 1   
   142  138  139 1   
   143  138  142 1   
   144  138  143 1   
   145  139  140 1   
   146  139  144 1   
   147  139  145 1   
   148  140  146 1   
   149  140  147 1   
   150  148  149 1   
   151  148  157 1   
   152  149  150 1   
   153  149  152 1   
   154  149  158 1   
   155  150  151 2   
   156  150  163 1   
   157  152  153 1   
   158  152  159 1   
   159  152  160 1   
   160  153  154 1   
   161  153  161 1   
   162  153  162 1   
   163  154  155 1   
   164  154  156 1   
   165  163  164 1   
   166  163  168 1   
   167  164  165 1   
   168  164  166 1   
   169  164  167 1   
   170  170  171 1   
   171  170  172 1   
   172  173  174 1   
   173  173  175 1   
   174  176  177 1   
   175  176  178 1   
   176  179  180 1   
   177  179  181 1   
   178  182  183 1   
   179  182  184 1   
@<TRIPOS>SUBSTRUCTURE
     1 MOL         1 TEMP              0 ****  ****    0 ROOT
