@<TRIPOS>MOLECULE
MOL
  192   187     1     0     0
SMALL
resp


@<TRIPOS>ATOM
      1 C1         -5.5090   -4.6190    2.7790 c3        1 MOL     -0.499071
      2 C2         -4.3890   -3.9700    1.9260 c         1 MOL      0.703121
      3 O1         -3.6250   -3.1410    2.3890 o         1 MOL     -0.467613
      4 H1         -6.3770   -3.9610    2.7990 hc        1 MOL      0.103484
      5 H2         -5.7900   -5.5770    2.3420 hc        1 MOL      0.103484
      6 H3         -5.1470   -4.7740    3.7950 hc        1 MOL      0.103484
      7 N1         -4.2280   -4.3630    0.6160 n         1 MOL     -0.683011
      8 C3         -3.1370   -3.8490   -0.2970 c3        1 MOL      0.290487
      9 C4         -1.6890   -3.8840    0.2620 c         1 MOL      0.550526
     10 O2         -0.9410   -2.9880   -0.0820 o         1 MOL     -0.568262
     11 C5         -3.5920   -2.4130   -0.7940 c3        1 MOL     -0.555952
     12 C6         -5.1050   -2.3460   -1.1100 c         1 MOL      0.604907
     13 O3         -5.5790   -3.0990   -1.9560 o         1 MOL     -0.607800
     14 O4         -5.8300   -1.5640   -0.3750 o         1 MOL     -0.607800
     15 H4         -4.8440   -5.0570    0.2070 hn        1 MOL      0.256927
     16 H5         -2.9970   -4.5190   -1.1490 h1        1 MOL      0.035527
     17 H6         -2.9860   -2.0030   -1.6050 hc        1 MOL      0.200678
     18 H7         -3.4220   -1.9060    0.1570 hc        1 MOL      0.200678
     19 N2         -1.3380   -4.7250    1.1390 n         1 MOL     -0.521067
     20 C7          0.0900   -4.9500    1.6480 c3        1 MOL      0.113578
     21 C8          0.7490   -6.2210    1.0350 c         1 MOL      0.385702
     22 O5          0.4030   -7.3200    1.2700 o         1 MOL     -0.573256
     23 C9          0.1040   -5.0650    3.2070 c3        1 MOL      0.059409
     24 C10        -0.5610   -3.8690    3.9500 c3        1 MOL      0.209965
     25 C11         1.6080   -5.0740    3.6560 c3        1 MOL     -0.161001
     26 C12        -0.6790   -4.2290    5.4570 c3        1 MOL     -0.231447
     27 H8         -1.9880   -5.4000    1.5150 hn        1 MOL      0.294159
     28 H9          0.6590   -4.0670    1.3390 h1        1 MOL      0.157149
     29 H10        -0.4220   -5.9700    3.5130 hc        1 MOL     -0.012198
     30 H11        -1.5540   -3.7120    3.5490 hc        1 MOL     -0.001379
     31 H12         0.0680   -2.9870    3.8170 hc        1 MOL     -0.001379
     32 H13         2.1490   -4.1330    3.5460 hc        1 MOL      0.035675
     33 H14         1.6960   -5.2540    4.7250 hc        1 MOL      0.035675
     34 H15         2.1040   -5.9490    3.2190 hc        1 MOL      0.035675
     35 H16         0.2610   -4.3160    6.0050 hc        1 MOL      0.033922
     36 H17        -1.2420   -3.4510    5.9850 hc        1 MOL      0.033922
     37 H18        -1.2650   -5.1340    5.5860 hc        1 MOL      0.033922
     38 N3          1.7900   -6.0580    0.2850 n         1 MOL     -0.168295
     39 C13         2.5260   -4.8810   -0.2080 c3        1 MOL     -0.191895
     40 C14         3.1370   -5.1250   -1.6460 c         1 MOL      0.567685
     41 O6          3.3510   -6.2680   -2.0900 o         1 MOL     -0.547292
     42 C15         3.7340   -4.5810    0.6510 c3        1 MOL     -0.050158
     43 C16         4.4030   -3.2360    0.3650 c         1 MOL      0.659074
     44 O7          5.5470   -3.2850   -0.1290 o         1 MOL     -0.642434
     45 O8          3.6850   -2.2030    0.4120 o         1 MOL     -0.642434
     46 H19         2.1070   -6.9280   -0.1180 hn        1 MOL      0.223095
     47 H20         1.8800   -4.0020   -0.2200 h1        1 MOL      0.047002
     48 H21         4.5210   -5.3250    0.5080 hc        1 MOL     -0.007276
     49 H22         3.4330   -4.6970    1.6850 hc        1 MOL     -0.007276
     50 N4          3.3680   -3.9690   -2.3220 n         1 MOL     -0.466453
     51 C17         3.8560   -3.8670   -3.7490 c3        1 MOL      0.152145
     52 C18         4.8370   -2.7050   -4.0780 c         1 MOL      0.368053
     53 O9          4.9420   -2.3680   -5.2510 o         1 MOL     -0.540310
     54 H23         3.2290   -3.1090   -1.8160 hn        1 MOL      0.342091
     55 H24         3.0400   -3.7920   -4.4610 h1        1 MOL      0.028740
     56 H25         4.3100   -4.8220   -4.0300 h1        1 MOL      0.028740
     57 N5          5.5120   -2.0920   -3.0960 n         1 MOL     -0.131864
     58 C19         6.5110   -1.0280   -3.4310 c3        1 MOL     -0.050172
     59 C20         7.7140   -1.0660   -2.4560 c         1 MOL      0.359134
     60 O10         8.7720   -0.5130   -2.7460 o         1 MOL     -0.542045
     61 C21         5.9520    0.3710   -3.6030 c3        1 MOL      0.034156
     62 C22         4.8260    0.6340   -2.6710 c         1 MOL      0.575848
     63 O11         5.1570    0.9770   -1.5140 o         1 MOL     -0.619762
     64 O12         3.6860    0.3950   -3.0630 o         1 MOL     -0.619762
     65 H26         5.5990   -2.5910   -2.2160 hn        1 MOL      0.116597
     66 H27         6.9090   -1.2190   -4.4190 h1        1 MOL      0.081228
     67 H28         5.6730    0.4740   -4.6480 hc        1 MOL      0.000043
     68 H29         6.7560    1.0700   -3.3670 hc        1 MOL      0.000043
     69 N6          7.5070   -1.4260   -1.1270 n         1 MOL     -0.147920
     70 C23         8.4720   -1.1500   -0.0960 c3        1 MOL     -0.244389
     71 C24         8.4540    0.3290    0.3670 c         1 MOL      0.566624
     72 O13         9.1350    0.6880    1.3550 o         1 MOL     -0.640257
     73 H30         6.7590   -2.0090   -0.7980 hn        1 MOL      0.245034
     74 H31         9.4590   -1.3460   -0.5050 h1        1 MOL      0.106459
     75 H32         8.3000   -1.7650    0.7810 h1        1 MOL      0.106459
     76 N7          7.7300    1.2220   -0.3620 n         1 MOL     -0.107633
     77 C25         7.4070    2.6530   -0.1070 c3        1 MOL      0.635643
     78 C26         6.9350    3.0710    1.3000 c         1 MOL      0.134385
     79 O14         7.1850    4.1690    1.7150 o         1 MOL     -0.481315
     80 C27         8.5520    3.5260   -0.6620 c3        1 MOL     -0.099802
     81 C28         9.0730    3.1380   -2.0650 c3        1 MOL     -0.338317
     82 C29         9.3340    4.2220   -3.0980 c         1 MOL      0.775896
     83 N8          9.7040    3.8560   -4.3480 n         1 MOL     -0.903680
     84 O15         9.1270    5.4140   -3.0110 o         1 MOL     -0.558704
     85 H33         7.2440    0.8270   -1.1590 hn        1 MOL     -0.123366
     86 H34         6.5220    2.7580   -0.7310 h1        1 MOL     -0.017340
     87 H35         9.3590    3.4820    0.0740 hc        1 MOL     -0.002175
     88 H36         8.0300    4.4690   -0.7590 hc        1 MOL     -0.002175
     89 H37         8.3810    2.4030   -2.4710 hc        1 MOL      0.102084
     90 H38         9.9630    2.5800   -1.7780 hc        1 MOL      0.102084
     91 H39         9.7770    2.8660   -4.5390 hn        1 MOL      0.366770
     92 H40         9.8180    4.5030   -5.1120 hn        1 MOL      0.366770
     93 N9          6.2680    2.2180    2.1550 n         1 MOL     -0.228304
     94 C30         5.8200    2.4710    3.4550 c3        1 MOL      0.209936
     95 C31         4.2830    2.3770    3.6040 c         1 MOL      0.371384
     96 O16         3.8220    2.7350    4.7340 o         1 MOL     -0.589236
     97 C32         6.5310    1.4720    4.4310 c3        1 MOL      0.301429
     98 C33         6.0230    0.0090    4.3310 c3        1 MOL     -0.418375
     99 C34         8.0490    1.5010    4.5200 c3        1 MOL     -0.418375
    100 H41         6.1200    1.2660    1.8480 hn        1 MOL      0.181329
    101 H42         6.0640    3.4840    3.7710 h1        1 MOL      0.033175
    102 H43         6.1440    1.8510    5.3790 hc        1 MOL     -0.070606
    103 H44         4.9550    0.0770    4.5000 hc        1 MOL      0.096238
    104 H45         6.1670   -0.4700    3.3560 hc        1 MOL      0.096238
    105 H46         6.4850   -0.5580    5.1420 hc        1 MOL      0.096238
    106 H47         8.3460    2.5390    4.6480 hc        1 MOL      0.096238
    107 H48         8.5670    0.8630    5.2380 hc        1 MOL      0.096238
    108 H49         8.4840    1.1800    3.5660 hc        1 MOL      0.096238
    109 N10         3.4810    1.9880    2.6310 n         1 MOL     -0.240253
    110 C35         2.0900    1.6840    2.8000 c3        1 MOL      0.084990
    111 C36         1.1800    1.9590    1.5680 c         1 MOL      0.479050
    112 O17         1.6500    2.0360    0.4370 o         1 MOL     -0.482201
    113 C37         2.0680    0.1310    3.1330 c3        1 MOL      0.158242
    114 C38         0.8940   -0.6740    2.5220 c         1 MOL      0.355011
    115 N11         1.1070   -1.4560    1.4560 n         1 MOL     -0.658218
    116 O18        -0.1950   -0.6170    3.0270 o         1 MOL     -0.575447
    117 H50         3.9840    1.7720    1.7910 hn        1 MOL      0.148633
    118 H51         1.6290    2.2900    3.5870 h1        1 MOL      0.050588
    119 H52         2.0850   -0.0390    4.2130 hc        1 MOL     -0.009302
    120 H53         2.9890   -0.3870    2.9010 hc        1 MOL     -0.009302
    121 H54         2.0260   -1.6970    1.1330 hn        1 MOL      0.354959
    122 H55         0.3090   -1.9000    1.0170 hn        1 MOL      0.354959
    123 N12        -0.1300    2.1560    1.8040 n         1 MOL     -0.525201
    124 C39        -1.0960    2.3390    0.7120 c3        1 MOL      0.174609
    125 C40        -2.3490    3.1420    1.0420 c         1 MOL      0.632792
    126 O19        -2.7650    3.2140    2.1300 o         1 MOL     -0.548266
    127 C41        -1.5220    0.9750    0.2840 c3        1 MOL      0.159536
    128 C42        -2.0540    0.9660   -1.1080 ca        1 MOL     -0.223506
    129 C43        -1.1230    0.8740   -2.1490 ca        1 MOL     -0.020074
    130 C44        -3.4510    1.0040   -1.4540 ca        1 MOL     -0.020074
    131 C45        -1.5910    0.7770   -3.5010 ca        1 MOL     -0.309434
    132 C46        -3.9290    0.9620   -2.7740 ca        1 MOL     -0.309434
    133 C47        -2.9340    0.7970   -3.8010 ca        1 MOL      0.375457
    134 O20        -3.3650    0.7880   -5.0930 oh        1 MOL     -0.583620
    135 H56        -0.3950    1.9520    2.7580 hn        1 MOL      0.286553
    136 H57        -0.6410    2.8700   -0.1240 h1        1 MOL      0.045044
    137 H58        -2.3330    0.6460    0.9440 hc        1 MOL      0.001397
    138 H59        -0.6880    0.2670    0.2730 hc        1 MOL      0.001397
    139 H60        -0.0810    0.9310   -1.8340 ha        1 MOL      0.123770
    140 H61        -4.1940    1.0700   -0.6780 ha        1 MOL      0.123770
    141 H62        -0.8060    0.7150   -4.2510 ha        1 MOL      0.172777
    142 H63        -4.9830    0.9520   -3.0250 ha        1 MOL      0.172777
    143 H64        -4.3100    0.8680   -5.2010 ho        1 MOL      0.409918
    144 N13        -2.8830    3.9280    0.0390 n         1 MOL     -0.705508
    145 C48        -3.8090    4.9810    0.2360 c3        1 MOL      0.085918
    146 C49        -4.9640    5.0350   -0.8280 c         1 MOL      0.573033
    147 O21        -4.7720    5.5860   -1.9000 o         1 MOL     -0.539890
    148 C50        -2.9720    6.2920    0.3610 c3        1 MOL      0.245609
    149 C51        -3.6560    7.6070    0.7760 c3        1 MOL     -0.286583
    150 C52        -4.5910    8.3190   -0.2500 c         1 MOL      0.750609
    151 O22        -4.1300    9.2740   -0.8930 o         1 MOL     -0.652869
    152 O23        -5.7780    7.9560   -0.2640 o         1 MOL     -0.652869
    153 H65        -2.5720    3.7390   -0.9060 hn        1 MOL      0.346817
    154 H66        -4.2510    4.7630    1.2000 h1        1 MOL      0.101658
    155 H67        -2.3900    6.4660   -0.5410 hc        1 MOL     -0.045927
    156 H68        -2.2030    6.0440    1.0970 hc        1 MOL     -0.045927
    157 H69        -2.8340    8.3000    0.9390 hc        1 MOL      0.030163
    158 H70        -4.1390    7.5400    1.7530 hc        1 MOL      0.030163
    159 N14        -6.1050    4.3880   -0.6620 n         1 MOL     -0.541914
    160 C53        -6.3240    3.3330    0.3620 c3        1 MOL      0.217486
    161 C54        -6.5390    3.6910    1.8690 c         1 MOL      0.444638
    162 O24        -6.8460    4.7690    2.2550 o         1 MOL     -0.506857
    163 C55        -7.5600    2.5510   -0.1810 c3        1 MOL     -0.197516
    164 C56        -7.5260    1.6940   -1.3960 c3        1 MOL     -0.068550
    165 C57        -8.8600    0.9500   -1.6240 c         1 MOL      0.812727
    166 O25        -9.0440   -0.1760   -1.1420 o         1 MOL     -0.730948
    167 O26        -9.6990    1.5820   -2.3250 o         1 MOL     -0.730948
    168 H71        -6.7530    4.3970   -1.4350 hn        1 MOL      0.358790
    169 H72        -5.4460    2.6970    0.4250 h1        1 MOL     -0.051857
    170 H73        -8.3800    3.2670   -0.2800 hc        1 MOL      0.026032
    171 H74        -7.8380    1.9460    0.6930 hc        1 MOL      0.026032
    172 H75        -6.7730    0.9230   -1.3210 hc        1 MOL     -0.013390
    173 H76        -7.1690    2.2490   -2.2730 hc        1 MOL     -0.013390
    174 N15        -6.3390    2.7070    2.7490 n         1 MOL     -0.181593
    175 C58        -6.4330    2.7880    4.2390 c3        1 MOL     -0.527779
    176 H77        -5.4300    2.7940    4.6660 h1        1 MOL      0.178851
    177 H78        -6.9530    3.7020    4.5230 h1        1 MOL      0.178851
    178 H79        -6.9810    1.9250    4.6160 h1        1 MOL      0.178851
    179 H80        -5.9120    1.8660    2.3830 hn        1 MOL      0.241287
    180 Ca1        -8.3100   -2.6550   -0.8770 Ca        1 MOL      1.510104
    181 O27       -10.8020   -2.9230   -1.8450 oh        1 MOL     -0.822984
    182 H81       -11.2970   -3.6330   -1.4400 ho        1 MOL      0.382343
    183 H82       -11.4430   -2.4370   -2.3520 ho        1 MOL      0.382343
    184 O28        -8.2430   -4.7280   -2.4630 oh        1 MOL     -0.822984
    185 H83        -8.7950   -5.3750   -2.8920 ho        1 MOL      0.382343
    186 H84        -7.3760   -5.1310   -2.4420 ho        1 MOL      0.382343
    187 O29        -7.9970   -1.3390    1.4360 oh        1 MOL     -0.822984
    188 H85        -8.2210   -0.8270    2.2180 ho        1 MOL      0.382343
    189 H86        -7.0520   -1.2290    1.3430 ho        1 MOL      0.382343
    190 O30        -7.6750   -2.0230   -3.5340 oh        1 MOL     -0.822984
    191 H87        -6.7490   -2.1260   -3.3430 ho        1 MOL      0.382343
    192 H88        -7.8840   -2.7520   -4.1030 ho        1 MOL      0.382343
@<TRIPOS>BOND
     1    1    2 1   
     2    1    4 1   
     3    1    5 1   
     4    1    6 1   
     5    2    3 2   
     6    2    7 1   
     7    7    8 1   
     8    7   15 1   
     9    8    9 1   
    10    8   11 1   
    11    8   16 1   
    12    9   10 2   
    13    9   19 1   
    14   11   12 1   
    15   11   17 1   
    16   11   18 1   
    17   12   13 1   
    18   12   14 1   
    19   19   20 1   
    20   19   27 1   
    21   20   21 1   
    22   20   23 1   
    23   20   28 1   
    24   21   22 2   
    25   21   38 1   
    26   23   24 1   
    27   23   25 1   
    28   23   29 1   
    29   24   26 1   
    30   24   30 1   
    31   24   31 1   
    32   25   32 1   
    33   25   33 1   
    34   25   34 1   
    35   26   35 1   
    36   26   36 1   
    37   26   37 1   
    38   38   39 1   
    39   38   46 1   
    40   39   40 1   
    41   39   42 1   
    42   39   47 1   
    43   40   41 2   
    44   40   50 1   
    45   42   43 1   
    46   42   48 1   
    47   42   49 1   
    48   43   44 1   
    49   43   45 1   
    50   50   51 1   
    51   50   54 1   
    52   51   52 1   
    53   51   55 1   
    54   51   56 1   
    55   52   53 2   
    56   52   57 1   
    57   57   58 1   
    58   57   65 1   
    59   58   59 1   
    60   58   61 1   
    61   58   66 1   
    62   59   60 2   
    63   59   69 1   
    64   61   62 1   
    65   61   67 1   
    66   61   68 1   
    67   62   63 1   
    68   62   64 1   
    69   69   70 1   
    70   69   73 1   
    71   70   71 1   
    72   70   74 1   
    73   70   75 1   
    74   71   72 2   
    75   71   76 1   
    76   76   77 1   
    77   76   85 1   
    78   77   78 1   
    79   77   80 1   
    80   77   86 1   
    81   78   79 2   
    82   78   93 1   
    83   80   81 1   
    84   80   87 1   
    85   80   88 1   
    86   81   82 1   
    87   81   89 1   
    88   81   90 1   
    89   82   83 1   
    90   82   84 2   
    91   83   91 1   
    92   83   92 1   
    93   93   94 1   
    94   93  100 1   
    95   94   95 1   
    96   94   97 1   
    97   94  101 1   
    98   95   96 2   
    99   95  109 1   
   100   97   98 1   
   101   97   99 1   
   102   97  102 1   
   103   98  103 1   
   104   98  104 1   
   105   98  105 1   
   106   99  106 1   
   107   99  107 1   
   108   99  108 1   
   109  109  110 1   
   110  109  117 1   
   111  110  111 1   
   112  110  113 1   
   113  110  118 1   
   114  111  112 2   
   115  111  123 1   
   116  113  114 1   
   117  113  119 1   
   118  113  120 1   
   119  114  115 1   
   120  114  116 2   
   121  115  121 1   
   122  115  122 1   
   123  123  124 1   
   124  123  135 1   
   125  124  125 1   
   126  124  127 1   
   127  124  136 1   
   128  125  126 2   
   129  125  144 1   
   130  127  128 1   
   131  127  137 1   
   132  127  138 1   
   133  128  129 ar  
   134  128  130 ar  
   135  129  131 ar  
   136  129  139 1   
   137  130  132 ar  
   138  130  140 1   
   139  131  133 ar  
   140  131  141 1   
   141  132  133 ar  
   142  132  142 1   
   143  133  134 1   
   144  134  143 1   
   145  144  145 1   
   146  144  153 1   
   147  145  146 1   
   148  145  148 1   
   149  145  154 1   
   150  146  147 2   
   151  146  159 1   
   152  148  149 1   
   153  148  155 1   
   154  148  156 1   
   155  149  150 1   
   156  149  157 1   
   157  149  158 1   
   158  150  151 1   
   159  150  152 1   
   160  159  160 1   
   161  159  168 1   
   162  160  161 1   
   163  160  163 1   
   164  160  169 1   
   165  161  162 2   
   166  161  174 1   
   167  163  164 1   
   168  163  170 1   
   169  163  171 1   
   170  164  165 1   
   171  164  172 1   
   172  164  173 1   
   173  165  166 1   
   174  165  167 1   
   175  174  175 1   
   176  174  179 1   
   177  175  176 1   
   178  175  177 1   
   179  175  178 1   
   180  181  182 1   
   181  181  183 1   
   182  184  185 1   
   183  184  186 1   
   184  187  188 1   
   185  187  189 1   
   186  190  191 1   
   187  190  192 1   
@<TRIPOS>SUBSTRUCTURE
     1 MOL         1 TEMP              0 ****  ****    0 ROOT
