@<TRIPOS>MOLECULE
MOL
  181   177     1     0     0
SMALL
resp


@<TRIPOS>ATOM
      1 C1         10.9700    6.7450   -0.9270 c3        1 MOL     -0.360262
      2 C2         10.3050    5.8210    0.0940 c         1 MOL      0.627330
      3 O1         10.2110    6.0950    1.2960 o         1 MOL     -0.586252
      4 H1         11.5300    7.5200   -0.4050 hc        1 MOL      0.090170
      5 H2         11.6500    6.1660   -1.5530 hc        1 MOL      0.090170
      6 H3         10.2060    7.2080   -1.5520 hc        1 MOL      0.090170
      7 N1          9.8690    4.6330   -0.2960 n         1 MOL     -0.535929
      8 C3         10.1920    3.8470   -1.5170 c3        1 MOL      0.326548
      9 C4         11.0490    2.6340   -1.2340 c         1 MOL      0.295132
     10 O2         11.4490    1.9880   -2.1790 o         1 MOL     -0.526196
     11 C5          8.8780    3.5180   -2.1770 c3        1 MOL     -0.624062
     12 C6          7.9860    2.6990   -1.2460 c         1 MOL      0.834546
     13 O3          6.9100    2.2130   -1.7370 o         1 MOL     -0.707672
     14 O4          8.1610    2.3270   -0.0430 o         1 MOL     -0.707672
     15 H4          9.4380    4.1880    0.5090 hn        1 MOL      0.294779
     16 H5         10.7650    4.4260   -2.2480 h1        1 MOL      0.072697
     17 H6          9.1150    2.9840   -3.0950 hc        1 MOL      0.168554
     18 H7          8.3630    4.4420   -2.4180 hc        1 MOL      0.168554
     19 N2         11.3550    2.3340    0.0080 n         1 MOL     -0.304966
     20 C7         12.4110    1.3600    0.3840 c3        1 MOL      0.133849
     21 C8         11.9700   -0.0610    0.3000 c         1 MOL      0.462360
     22 O5         12.8270   -0.9010    0.3370 o         1 MOL     -0.547721
     23 C9         12.8830    1.7470    1.7600 c3        1 MOL     -0.318323
     24 H8         10.9730    3.0000    0.6610 hn        1 MOL      0.250990
     25 H9         13.2010    1.5370   -0.3440 h1        1 MOL      0.077638
     26 H10        13.1490    2.8080    1.8100 hc        1 MOL      0.096482
     27 H11        12.0000    1.6620    2.4040 hc        1 MOL      0.096482
     28 H12        13.7620    1.2150    2.1280 hc        1 MOL      0.096482
     29 N3         10.6370   -0.2790    0.0720 n         1 MOL     -0.217837
     30 C10        10.0570   -1.6440    0.2680 c3        1 MOL     -0.051037
     31 C11         8.8740   -1.8050   -0.6530 c         1 MOL      0.427905
     32 O6          8.3260   -0.7900   -1.1580 o         1 MOL     -0.492786
     33 C12         9.7130   -1.7430    1.8010 c3        1 MOL     -0.286356
     34 C13         8.9110   -0.5950    2.3300 c         1 MOL      0.769370
     35 O7          7.8100   -0.3950    1.8810 o         1 MOL     -0.715662
     36 O8          9.4090    0.1390    3.2700 o         1 MOL     -0.715662
     37 H13        10.0690    0.5580    0.1100 hn        1 MOL      0.184143
     38 H14        10.7760   -2.4260    0.0400 h1        1 MOL      0.104693
     39 H15        10.6910   -1.8020    2.2680 hc        1 MOL      0.077047
     40 H16         9.1390   -2.6490    1.9830 hc        1 MOL      0.077047
     41 N4          8.3290   -2.9650   -0.8690 n         1 MOL     -0.365354
     42 C14         7.4020   -3.2350   -1.9790 c3        1 MOL     -0.249847
     43 C15         5.9640   -2.9320   -1.7340 c         1 MOL      0.814170
     44 O9          5.6290   -2.2480   -0.7170 o         1 MOL     -0.727912
     45 H17         8.8250   -3.7770   -0.5320 hn        1 MOL      0.307423
     46 H18         7.3980   -4.2910   -2.2610 h1        1 MOL      0.124960
     47 H19         7.6960   -2.6380   -2.8450 h1        1 MOL      0.124960
     48 N5          5.0900   -3.4410   -2.6120 n         1 MOL     -0.627652
     49 C16         3.7090   -2.8740   -2.6120 c3        1 MOL      0.150317
     50 C17         2.7920   -3.5620   -1.5780 c         1 MOL      0.738568
     51 O10         2.7650   -4.7540   -1.3990 o         1 MOL     -0.580063
     52 C18         3.2860   -3.0710   -4.1030 c3        1 MOL     -0.629828
     53 C19         1.8620   -2.6310   -4.2020 c         1 MOL      0.754880
     54 N6          0.9170   -3.5020   -4.4400 n         1 MOL     -0.793283
     55 O11         1.5500   -1.4760   -3.9960 o         1 MOL     -0.565885
     56 H20         5.4610   -3.9110   -3.4210 hn        1 MOL      0.345649
     57 H21         3.6450   -1.8070   -2.4300 h1        1 MOL      0.104299
     58 H22         3.4330   -4.1080   -4.3950 hc        1 MOL      0.168951
     59 H23         3.7250   -2.3720   -4.8090 hc        1 MOL      0.168951
     60 H24         1.1940   -4.4300   -4.7160 hn        1 MOL      0.388521
     61 H25        -0.0310   -3.1700   -4.5240 hn        1 MOL      0.388521
     62 N7          1.9720   -2.7640   -0.8460 n         1 MOL     -0.553029
     63 C20         0.9890   -3.2210    0.1140 c3        1 MOL     -0.042062
     64 C21         1.1050   -2.3980    1.4480 c         1 MOL      0.738554
     65 O12         1.7150   -1.3100    1.4770 o         1 MOL     -0.602331
     66 H26         2.0830   -1.7640   -0.9120 hn        1 MOL      0.346395
     67 H27         1.2670   -4.2150    0.4720 h1        1 MOL      0.131681
     68 H28        -0.0310   -3.2820   -0.2730 h1        1 MOL      0.131681
     69 N8          0.4670   -2.7590    2.6050 n         1 MOL     -0.644827
     70 C22        -0.3730   -3.9930    2.7440 c3        1 MOL     -0.310705
     71 C23        -1.7990   -3.6940    2.2190 c         1 MOL      0.453248
     72 O13        -2.3180   -4.4880    1.4030 o         1 MOL     -0.472289
     73 C24        -0.2680   -4.5470    4.1620 c3        1 MOL      0.538109
     74 C25        -1.2050   -5.7800    4.3290 c3        1 MOL     -0.422164
     75 O14         1.0440   -5.0400    4.5500 oh        1 MOL     -0.662663
     76 H29         0.6990   -2.1730    3.4040 hn        1 MOL      0.341520
     77 H30        -0.0440   -4.7680    2.0500 h1        1 MOL      0.136889
     78 H31        -0.6160   -3.7960    4.8740 h1        1 MOL      0.014088
     79 H32         1.4190   -5.3180    3.7180 ho        1 MOL      0.403291
     80 H33        -1.3960   -6.3270    3.4070 hc        1 MOL      0.106988
     81 H34        -0.7710   -6.4920    5.0290 hc        1 MOL      0.106988
     82 H35        -2.1200   -5.4600    4.8130 hc        1 MOL      0.106988
     83 N9         -2.3190   -2.5160    2.6140 n         1 MOL     -0.275658
     84 C26        -3.5470   -1.8580    2.0350 c3        1 MOL     -0.435400
     85 C27        -3.3950   -1.3830    0.5940 c         1 MOL      0.627176
     86 O15        -2.2880   -0.9190    0.2550 o         1 MOL     -0.574037
     87 C28        -4.2250   -0.9690    3.1350 c3        1 MOL     -0.025424
     88 C29        -3.3130    0.2550    3.5050 c3        1 MOL      0.046912
     89 C30        -4.4840   -1.8290    4.4180 c3        1 MOL     -0.087238
     90 C31        -3.8830    1.3250    4.4250 c3        1 MOL     -0.151951
     91 H36        -1.8210   -2.0170    3.3330 hn        1 MOL      0.313910
     92 H37        -4.2540   -2.6770    1.9170 h1        1 MOL      0.267723
     93 H38        -5.1870   -0.6320    2.7510 hc        1 MOL      0.089870
     94 H39        -3.1280    0.8400    2.6020 hc        1 MOL      0.034641
     95 H40        -2.3200   -0.0080    3.8730 hc        1 MOL      0.034641
     96 H41        -5.0830   -2.6980    4.1730 hc        1 MOL      0.012750
     97 H42        -3.5360   -2.1730    4.8350 hc        1 MOL      0.012750
     98 H43        -4.9710   -1.2110    5.1720 hc        1 MOL      0.012750
     99 H44        -4.1430    0.8670    5.3860 hc        1 MOL      0.032830
    100 H45        -3.0910    2.0500    4.6410 hc        1 MOL      0.032830
    101 H46        -4.7040    1.8410    3.9380 hc        1 MOL      0.032830
    102 N10        -4.4070   -1.3330   -0.2790 n         1 MOL     -0.356182
    103 C32        -5.8030   -1.7600   -0.0270 c3        1 MOL      0.388008
    104 C33        -6.8120   -0.7760   -0.7030 c         1 MOL      0.155424
    105 O16        -6.6340   -0.1300   -1.7670 o         1 MOL     -0.354507
    106 C34        -6.1010   -3.1890   -0.4950 c3        1 MOL      0.008522
    107 C35        -5.3190   -3.6010   -1.8000 c         1 MOL      0.591702
    108 O17        -5.1570   -2.7850   -2.7110 o         1 MOL     -0.683372
    109 O18        -4.6710   -4.6850   -1.7920 o         1 MOL     -0.683372
    110 H47        -4.2340   -0.8040   -1.1220 hn        1 MOL      0.301669
    111 H48        -5.9720   -1.7590    1.0520 h1        1 MOL     -0.058360
    112 H49        -7.1480   -3.4620   -0.6500 hc        1 MOL     -0.080840
    113 H50        -5.7850   -3.7760    0.3640 hc        1 MOL     -0.080840
    114 N11        -8.0160   -0.8740   -0.1440 n         1 MOL     -0.407899
    115 C36        -9.2330   -0.1910   -0.4970 c3        1 MOL      0.314626
    116 C37       -10.1500    0.2470    0.6700 c         1 MOL      0.047900
    117 O19       -10.2850   -0.4480    1.7040 o         1 MOL     -0.475172
    118 C38       -10.0330   -1.1890   -1.3090 c3        1 MOL     -0.223876
    119 C39       -11.2970   -0.8060   -2.0170 ca        1 MOL      0.040017
    120 C40       -12.5610   -0.8840   -1.3490 ca        1 MOL     -0.145975
    121 C41       -11.2660   -0.4110   -3.3860 ca        1 MOL     -0.145975
    122 C42       -13.7420   -0.6210   -2.0200 ca        1 MOL     -0.110033
    123 C43       -12.4980   -0.0800   -4.0200 ca        1 MOL     -0.110033
    124 C44       -13.7190   -0.1780   -3.3320 ca        1 MOL     -0.107739
    125 H51        -8.0320   -1.2450    0.7980 hn        1 MOL      0.257911
    126 H52        -8.9820    0.6060   -1.1980 h1        1 MOL      0.034009
    127 H53       -10.2640   -2.0280   -0.6540 hc        1 MOL      0.113058
    128 H54        -9.3900   -1.5950   -2.0950 hc        1 MOL      0.113058
    129 H55       -12.6460   -1.1510   -0.3040 ha        1 MOL      0.138934
    130 H56       -10.2710   -0.3420   -3.8010 ha        1 MOL      0.138934
    131 H57       -14.6500   -0.8530   -1.4850 ha        1 MOL      0.093372
    132 H58       -12.4750    0.0530   -5.0900 ha        1 MOL      0.093372
    133 H59       -14.6540    0.0370   -3.8170 ha        1 MOL      0.085411
    134 N12       -10.7910    1.4250    0.5710 n         1 MOL      0.229439
    135 C45       -10.8020    2.4640   -0.5030 c3        1 MOL      0.147905
    136 C46        -9.5040    3.2770   -0.4870 c         1 MOL      0.315493
    137 O20        -9.2960    3.8670   -1.5400 o         1 MOL     -0.521356
    138 C47       -11.9670    3.3910   -0.2430 c3        1 MOL     -0.102220
    139 C48       -12.9080    2.6900    0.7280 c3        1 MOL      0.179676
    140 C49       -11.9490    1.7830    1.4430 c3        1 MOL     -0.411345
    141 H60       -10.9460    1.9390   -1.4480 h1        1 MOL      0.038527
    142 H61       -11.5980    4.2680    0.2960 hc        1 MOL      0.034198
    143 H62       -12.4290    3.6220   -1.2040 hc        1 MOL      0.034198
    144 H63       -13.4310    3.4000    1.3750 hc        1 MOL     -0.027945
    145 H64       -13.6340    2.1660    0.1040 hc        1 MOL     -0.027945
    146 H65       -11.4710    2.2970    2.2750 h1        1 MOL      0.122915
    147 H66       -12.4900    0.9010    1.8040 h1        1 MOL      0.122915
    148 N13        -8.7970    3.2730    0.5970 n         1 MOL     -0.379045
    149 C50        -7.4610    3.7950    0.7700 c3        1 MOL      0.298818
    150 C51        -7.0930    4.4900    2.0680 c         1 MOL      0.414757
    151 O21        -7.5220    4.0050    3.1130 o         1 MOL     -0.585667
    152 C52        -6.5590    2.5690    0.4750 c3        1 MOL      0.041260
    153 C53        -5.0520    2.9360    0.1780 c3        1 MOL     -0.160867
    154 C54        -4.6970    3.3170   -1.2500 c         1 MOL      0.622543
    155 O22        -4.8040    4.5180   -1.6660 o         1 MOL     -0.673379
    156 O23        -4.3540    2.3820   -2.0530 o         1 MOL     -0.673379
    157 H67        -9.2120    2.8730    1.4220 hn        1 MOL      0.202264
    158 H68        -7.2200    4.4500   -0.0620 h1        1 MOL      0.038438
    159 H69        -6.8870    2.0370   -0.4190 hc        1 MOL      0.018422
    160 H70        -6.5240    1.8250    1.2770 hc        1 MOL      0.018422
    161 H71        -4.4470    2.1040    0.5540 hc        1 MOL      0.005173
    162 H72        -4.8100    3.6740    0.9420 hc        1 MOL      0.005173
    163 N14        -6.3520    5.5900    2.0880 n         1 MOL     -0.412867
    164 C55        -5.8340    6.4630    0.9940 c3        1 MOL      0.069095
    165 H73        -5.2330    7.2640    1.4230 h1        1 MOL      0.017973
    166 H74        -5.2190    5.8710    0.3160 h1        1 MOL      0.017973
    167 H75        -6.6710    6.8910    0.4440 h1        1 MOL      0.017973
    168 H76        -6.3290    5.9960    3.0110 hn        1 MOL      0.274496
    169 Ca1         6.2830    0.3410    0.0740 Ca        1 MOL      1.786579
    170 O24         5.6310   -0.1330   -2.6590 oh        1 MOL     -0.854468
    171 H77         4.8010    0.0870   -3.0770 ho        1 MOL      0.415521
    172 H78         6.2770   -0.0830   -3.3660 ho        1 MOL      0.415521
    173 O25         4.3690   -0.7150    1.5580 oh        1 MOL     -0.854468
    174 H79         3.4920   -1.0550    1.7330 ho        1 MOL      0.415521
    175 H80         4.7830   -0.6790    2.4200 ho        1 MOL      0.415521
    176 O26         5.8670    2.2780    1.8920 oh        1 MOL     -0.854468
    177 H81         5.7570    2.3190    2.8340 ho        1 MOL      0.415521
    178 H82         5.7400    3.1810    1.5990 ho        1 MOL      0.415521
    179 O27         4.2030    1.7120   -0.9020 oh        1 MOL     -0.854468
    180 H83         3.4440    1.2270   -1.2160 ho        1 MOL      0.415521
    181 H84         3.8910    2.6210   -0.8670 ho        1 MOL      0.415521
@<TRIPOS>BOND
     1    1    2 1   
     2    1    4 1   
     3    1    5 1   
     4    1    6 1   
     5    2    3 2   
     6    2    7 1   
     7    7    8 1   
     8    7   15 1   
     9    8    9 1   
    10    8   11 1   
    11    8   16 1   
    12    9   10 2   
    13    9   19 1   
    14   11   12 1   
    15   11   17 1   
    16   11   18 1   
    17   12   13 1   
    18   12   14 1   
    19   19   20 1   
    20   19   24 1   
    21   20   21 1   
    22   20   23 1   
    23   20   25 1   
    24   21   22 2   
    25   21   29 1   
    26   23   26 1   
    27   23   27 1   
    28   23   28 1   
    29   29   30 1   
    30   29   37 1   
    31   30   31 1   
    32   30   33 1   
    33   30   38 1   
    34   31   32 2   
    35   31   41 1   
    36   33   34 1   
    37   33   39 1   
    38   33   40 1   
    39   34   35 1   
    40   34   36 1   
    41   41   42 1   
    42   41   45 1   
    43   42   43 1   
    44   42   46 1   
    45   42   47 1   
    46   43   44 2   
    47   43   48 1   
    48   48   49 1   
    49   48   56 1   
    50   49   50 1   
    51   49   52 1   
    52   49   57 1   
    53   50   51 2   
    54   50   62 1   
    55   52   53 1   
    56   52   58 1   
    57   52   59 1   
    58   53   54 1   
    59   53   55 2   
    60   54   60 1   
    61   54   61 1   
    62   62   63 1   
    63   62   66 1   
    64   63   64 1   
    65   63   67 1   
    66   63   68 1   
    67   64   65 2   
    68   64   69 1   
    69   69   70 1   
    70   69   76 1   
    71   70   71 1   
    72   70   73 1   
    73   70   77 1   
    74   71   72 2   
    75   71   83 1   
    76   73   74 1   
    77   73   75 1   
    78   73   78 1   
    79   74   80 1   
    80   74   81 1   
    81   74   82 1   
    82   75   79 1   
    83   83   84 1   
    84   83   91 1   
    85   84   85 1   
    86   84   87 1   
    87   84   92 1   
    88   85   86 2   
    89   85  102 1   
    90   87   88 1   
    91   87   89 1   
    92   87   93 1   
    93   88   90 1   
    94   88   94 1   
    95   88   95 1   
    96   89   96 1   
    97   89   97 1   
    98   89   98 1   
    99   90   99 1   
   100   90  100 1   
   101   90  101 1   
   102  102  103 1   
   103  102  110 1   
   104  103  104 1   
   105  103  106 1   
   106  103  111 1   
   107  104  105 2   
   108  104  114 1   
   109  106  107 1   
   110  106  112 1   
   111  106  113 1   
   112  107  108 1   
   113  107  109 1   
   114  114  115 1   
   115  114  125 1   
   116  115  116 1   
   117  115  118 1   
   118  115  126 1   
   119  116  117 2   
   120  116  134 1   
   121  118  119 1   
   122  118  127 1   
   123  118  128 1   
   124  119  120 ar  
   125  119  121 ar  
   126  120  122 ar  
   127  120  129 1   
   128  121  123 ar  
   129  121  130 1   
   130  122  124 ar  
   131  122  131 1   
   132  123  124 ar  
   133  123  132 1   
   134  124  133 1   
   135  134  135 1   
   136  134  140 1   
   137  135  136 1   
   138  135  138 1   
   139  135  141 1   
   140  136  137 2   
   141  136  148 1   
   142  138  139 1   
   143  138  142 1   
   144  138  143 1   
   145  139  140 1   
   146  139  144 1   
   147  139  145 1   
   148  140  146 1   
   149  140  147 1   
   150  148  149 1   
   151  148  157 1   
   152  149  150 1   
   153  149  152 1   
   154  149  158 1   
   155  150  151 2   
   156  150  163 1   
   157  152  153 1   
   158  152  159 1   
   159  152  160 1   
   160  153  154 1   
   161  153  161 1   
   162  153  162 1   
   163  154  155 1   
   164  154  156 1   
   165  163  164 1   
   166  163  168 1   
   167  164  165 1   
   168  164  166 1   
   169  164  167 1   
   170  170  171 1   
   171  170  172 1   
   172  173  174 1   
   173  173  175 1   
   174  176  177 1   
   175  176  178 1   
   176  179  180 1   
   177  179  181 1   
@<TRIPOS>SUBSTRUCTURE
     1 MOL         1 TEMP              0 ****  ****    0 ROOT
