@<TRIPOS>MOLECULE
MOL
  184   179     1     0     0
SMALL
resp


@<TRIPOS>ATOM
      1 C1          2.7730   -7.1670    3.1470 c3        1 MOL     -0.190342
      2 C2          2.8830   -5.6550    2.9450 c         1 MOL      0.670157
      3 O1          2.1770   -4.9450    3.6690 o         1 MOL     -0.570718
      4 H1          2.6030   -7.3820    4.2020 hc        1 MOL      0.040781
      5 H2          1.9410   -7.5530    2.5590 hc        1 MOL      0.040781
      6 H3          3.6980   -7.6460    2.8240 hc        1 MOL      0.040781
      7 N1          3.4960   -5.1340    1.9190 n         1 MOL     -0.576247
      8 C3          4.5090   -5.6780    0.9640 c3        1 MOL      0.268439
      9 C4          4.5140   -4.9630   -0.4000 c         1 MOL      0.477496
     10 O2          3.7050   -4.0940   -0.6430 o         1 MOL     -0.462766
     11 C5          5.9510   -5.6510    1.5860 c3        1 MOL     -0.094430
     12 C6          6.4400   -4.3210    1.9660 c         1 MOL      0.588333
     13 O3          6.5700   -3.4720    1.0700 o         1 MOL     -0.598924
     14 O4          6.6910   -4.0770    3.1500 o         1 MOL     -0.598924
     15 H4          3.2310   -4.1610    1.7860 hn        1 MOL      0.346747
     16 H5          4.2260   -6.7030    0.7310 h1        1 MOL      0.011400
     17 H6          6.6540   -6.1830    0.9520 hc        1 MOL     -0.039890
     18 H7          5.9030   -6.2520    2.5040 hc        1 MOL     -0.039890
     19 N2          5.3600   -5.3940   -1.3430 n         1 MOL     -0.727135
     20 C7          5.4040   -4.7060   -2.6050 c3        1 MOL      0.533045
     21 C8          5.7970   -3.2110   -2.7790 c         1 MOL      0.306504
     22 O5          6.1560   -2.6570   -3.8830 o         1 MOL     -0.549267
     23 C9          4.1620   -5.1260   -3.3570 c3        1 MOL     -0.274657
     24 H8          5.9140   -6.2180   -1.1720 hn        1 MOL      0.343116
     25 H9          6.2480   -5.1350   -3.1450 h1        1 MOL     -0.078409
     26 H10         3.2330   -4.7640   -2.9140 hc        1 MOL      0.074645
     27 H11         4.2530   -4.7080   -4.3600 hc        1 MOL      0.074645
     28 H12         4.1880   -6.2150   -3.4420 hc        1 MOL      0.074645
     29 N3          5.5880   -2.3460   -1.7130 n         1 MOL     -0.186680
     30 C10         5.4620   -0.9200   -1.9060 c3        1 MOL     -0.335071
     31 C11         6.7920   -0.1490   -2.0830 c         1 MOL      0.613392
     32 O6          7.8140   -0.6280   -1.6530 o         1 MOL     -0.587980
     33 C12         4.6550   -0.3140   -0.7240 c3        1 MOL      0.178710
     34 C13         5.1540   -0.4130    0.7500 c         1 MOL      0.583777
     35 O7          6.3390   -0.5030    1.0070 o         1 MOL     -0.648759
     36 O8          4.2660   -0.4770    1.5540 o         1 MOL     -0.648759
     37 H13         5.2510   -2.7910   -0.8690 hn        1 MOL      0.185734
     38 H14         4.9360   -0.8450   -2.8520 h1        1 MOL      0.155654
     39 H15         3.6700   -0.7590   -0.8300 hc        1 MOL     -0.044030
     40 H16         4.5770    0.7400   -0.9560 hc        1 MOL     -0.044030
     41 N4          6.7270    1.0850   -2.6300 n         1 MOL     -0.407881
     42 C14         7.8940    1.9340   -2.6600 c3        1 MOL      0.099400
     43 C15         7.7310    3.1600   -1.7250 c         1 MOL      0.293355
     44 O9          8.4920    3.2850   -0.7430 o         1 MOL     -0.417979
     45 H17         5.9600    1.3420   -3.2300 hn        1 MOL      0.264945
     46 H18         8.1950    2.3000   -3.6370 h1        1 MOL      0.029118
     47 H19         8.7460    1.4130   -2.2360 h1        1 MOL      0.029118
     48 N5          6.6880    3.9560   -1.8230 n         1 MOL     -0.302732
     49 C16         6.3990    5.0710   -0.9910 c3        1 MOL      0.045373
     50 C17         5.0000    4.9800   -0.3530 c         1 MOL      0.642533
     51 O10         4.2470    4.0080   -0.6920 o         1 MOL     -0.481214
     52 C18         6.4950    6.3870   -1.7220 c3        1 MOL     -0.276683
     53 C19         7.6240    6.3740   -2.7370 c         1 MOL      0.712875
     54 N6          7.2200    6.4430   -3.9550 n         1 MOL     -0.796963
     55 O11         8.8090    6.2730   -2.3900 o         1 MOL     -0.583175
     56 H20         6.2090    3.8460   -2.7030 hn        1 MOL      0.246185
     57 H21         7.1930    5.1340   -0.2520 h1        1 MOL      0.069524
     58 H22         6.6570    7.2820   -1.1210 hc        1 MOL      0.076344
     59 H23         5.5500    6.5030   -2.2560 hc        1 MOL      0.076344
     60 H24         6.2320    6.4640   -4.1320 hn        1 MOL      0.367795
     61 H25         7.8680    6.1420   -4.6640 hn        1 MOL      0.367795
     62 N7          4.7310    5.9050    0.5880 n         1 MOL     -0.621726
     63 C20         3.4760    5.8710    1.3430 c3        1 MOL     -0.024244
     64 C21         2.2120    5.8750    0.4460 c         1 MOL      0.425828
     65 O12         2.2160    6.4630   -0.6510 o         1 MOL     -0.551984
     66 H26         5.3100    6.7290    0.5980 hn        1 MOL      0.341193
     67 H27         3.4700    6.6440    2.1100 h1        1 MOL      0.121751
     68 H28         3.6880    4.9060    1.7930 h1        1 MOL      0.121751
     69 N8          1.1060    5.2650    0.7980 n         1 MOL     -0.226568
     70 C22         0.7850    4.2060    1.7760 c3        1 MOL     -0.366385
     71 C23        -0.3490    3.3200    1.2570 c         1 MOL      0.715902
     72 O13        -1.1480    3.7350    0.4540 o         1 MOL     -0.533393
     73 C24         0.4230    4.7820    3.1890 c3        1 MOL      0.380152
     74 C25         0.7940    3.8650    4.3130 c3        1 MOL     -0.189100
     75 O14         1.1270    5.9560    3.4470 oh        1 MOL     -0.635340
     76 H29         0.3600    5.5710    0.1900 hn        1 MOL      0.244690
     77 H30         1.6500    3.5670    1.8300 h1        1 MOL      0.167876
     78 H31        -0.6260    5.0420    3.2260 h1        1 MOL      0.041614
     79 H32         0.7810    6.5470    2.7760 ho        1 MOL      0.361336
     80 H33         0.0380    3.0910    4.3930 hc        1 MOL      0.053190
     81 H34         1.7750    3.4040    4.1770 hc        1 MOL      0.053190
     82 H35         0.7530    4.3660    5.2750 hc        1 MOL      0.053190
     83 N9         -0.4510    2.0960    1.7770 n         1 MOL     -0.596547
     84 C26        -1.5630    1.2050    1.3180 c3        1 MOL      0.336018
     85 C27        -2.6010    1.2110    2.4600 c         1 MOL      0.560479
     86 O15        -2.1680    1.0820    3.5900 o         1 MOL     -0.579806
     87 C28        -1.0330   -0.2110    1.0350 c3        1 MOL     -0.075336
     88 C29         0.0150   -0.2880   -0.0520 c3        1 MOL     -0.363505
     89 C30        -2.1960   -1.1650    0.6700 c3        1 MOL      0.044745
     90 C31        -0.3850    0.3390   -1.4280 c3        1 MOL     -0.072548
     91 H36         0.3700    1.7540    2.2680 hn        1 MOL      0.317996
     92 H37        -1.9690    1.6000    0.3940 h1        1 MOL      0.007534
     93 H38        -0.6410   -0.5660    1.9850 hc        1 MOL      0.017977
     94 H39         0.2240   -1.3290   -0.2980 hc        1 MOL      0.150731
     95 H40         0.9210    0.2080    0.2740 hc        1 MOL      0.150731
     96 H41        -2.8170   -1.2510    1.5640 hc        1 MOL      0.010834
     97 H42        -2.8290   -0.6710   -0.0610 hc        1 MOL      0.010834
     98 H43        -1.9020   -2.1740    0.4080 hc        1 MOL      0.010834
     99 H44        -1.1880   -0.2680   -1.8470 hc        1 MOL      0.032219
    100 H45        -0.5620    1.4140   -1.3650 hc        1 MOL      0.032219
    101 H46         0.4980    0.2900   -2.0630 hc        1 MOL      0.032219
    102 N10        -3.9120    1.2750    2.2120 n         1 MOL     -0.545529
    103 C32        -4.6390    1.5870    0.9170 c3        1 MOL      0.118351
    104 C33        -6.1400    1.1930    0.8990 c         1 MOL      0.545559
    105 O16        -6.6460    0.8490    1.9630 o         1 MOL     -0.530471
    106 C34        -4.4520    3.0930    0.7790 c3        1 MOL      0.070029
    107 C35        -5.2800    3.9890    1.7470 c         1 MOL      0.688442
    108 O17        -4.7680    4.3110    2.8860 o         1 MOL     -0.689653
    109 O18        -6.3950    4.4230    1.4120 o         1 MOL     -0.689653
    110 H47        -4.5510    1.1830    2.9810 hn        1 MOL      0.327594
    111 H48        -4.2120    1.0960    0.0410 h1        1 MOL      0.026792
    112 H49        -4.8660    3.3220   -0.2020 hc        1 MOL     -0.081051
    113 H50        -3.3880    3.3130    0.8720 hc        1 MOL     -0.081051
    114 N11        -6.8040    1.2770   -0.2500 n         1 MOL     -0.660519
    115 C36        -8.2480    1.1080   -0.3890 c3        1 MOL      0.344113
    116 C37        -8.6040    0.6170   -1.8350 c         1 MOL      0.277788
    117 O19        -7.8580    1.0070   -2.7060 o         1 MOL     -0.488236
    118 C38        -8.9920    2.4160   -0.0220 c3        1 MOL     -0.030124
    119 C39       -10.4960    2.3010    0.1480 ca        1 MOL      0.003879
    120 C40       -11.3290    2.5910   -0.9070 ca        1 MOL     -0.127571
    121 C41       -10.9820    1.7550    1.3740 ca        1 MOL     -0.127571
    122 C42       -12.7030    2.2940   -0.7700 ca        1 MOL     -0.111067
    123 C43       -12.2930    1.3330    1.3890 ca        1 MOL     -0.111067
    124 C44       -13.1720    1.5540    0.3410 ca        1 MOL     -0.164199
    125 H51        -6.3060    1.6370   -1.0560 hn        1 MOL      0.375599
    126 H52        -8.6450    0.4090    0.3510 h1        1 MOL      0.012210
    127 H53        -8.8260    3.2410   -0.7190 hc        1 MOL      0.040561
    128 H54        -8.5930    2.8170    0.9150 hc        1 MOL      0.040561
    129 H55       -10.9120    2.9620   -1.8300 ha        1 MOL      0.133070
    130 H56       -10.3550    1.6060    2.2330 ha        1 MOL      0.133070
    131 H57       -13.3470    2.5370   -1.6120 ha        1 MOL      0.093681
    132 H58       -12.7000    0.9210    2.3000 ha        1 MOL      0.093681
    133 H59       -14.1450    1.1200    0.5080 ha        1 MOL      0.113161
    134 N12        -9.6800   -0.1810   -2.0720 n         1 MOL      0.024286
    135 C45       -10.4620   -0.8910   -1.0080 c3        1 MOL      0.016791
    136 C46        -9.6730   -1.9630   -0.2820 c         1 MOL      0.429264
    137 O20        -9.8970   -2.1330    0.8950 o         1 MOL     -0.512036
    138 C47       -11.6250   -1.5160   -1.7500 c3        1 MOL     -0.022778
    139 C48       -11.7160   -0.8220   -3.0650 c3        1 MOL      0.207224
    140 C49       -10.3450   -0.3390   -3.3430 c3        1 MOL     -0.198365
    141 H60       -10.7300   -0.1270   -0.2770 h1        1 MOL      0.055717
    142 H61       -11.4140   -2.5880   -1.8240 hc        1 MOL      0.006972
    143 H62       -12.5790   -1.4160   -1.2280 hc        1 MOL      0.006972
    144 H63       -12.2300   -1.4570   -3.7830 hc        1 MOL     -0.054491
    145 H64       -12.2750    0.1030   -2.9240 hc        1 MOL     -0.054491
    146 H65        -9.7630   -1.0120   -3.9670 h1        1 MOL      0.060566
    147 H66       -10.4410    0.6490   -3.8140 h1        1 MOL      0.060566
    148 N13        -8.7070   -2.5670   -1.0140 n         1 MOL     -0.367945
    149 C50        -7.7770   -3.5280   -0.4850 c3        1 MOL      0.158454
    150 C51        -8.3630   -4.9580   -0.3840 c         1 MOL      0.417761
    151 O21        -8.5970   -5.5840   -1.4250 o         1 MOL     -0.586284
    152 C52        -6.5780   -3.5650   -1.3490 c3        1 MOL      0.034335
    153 C53        -5.7220   -2.2830   -1.3540 c3        1 MOL      0.058590
    154 C54        -4.5200   -2.5120   -2.2560 c         1 MOL      0.742590
    155 O22        -3.6310   -3.3140   -1.9040 o         1 MOL     -0.701331
    156 O23        -4.5300   -1.9600   -3.3660 o         1 MOL     -0.701331
    157 H67        -8.7790   -2.4690   -2.0220 hn        1 MOL      0.283451
    158 H68        -7.3230   -3.1890    0.4480 h1        1 MOL      0.093285
    159 H69        -6.7820   -3.8940   -2.3700 hc        1 MOL     -0.021688
    160 H70        -5.9540   -4.3240   -0.8780 hc        1 MOL     -0.021688
    161 H71        -5.2910   -2.0800   -0.3620 hc        1 MOL     -0.098718
    162 H72        -6.2960   -1.4440   -1.7330 hc        1 MOL     -0.098718
    163 N14        -8.9140   -5.5130    0.7080 n         1 MOL     -0.320289
    164 C55        -8.8790   -4.8960    1.9950 c3        1 MOL     -0.052952
    165 H73        -8.1120   -5.3740    2.6060 h1        1 MOL      0.039082
    166 H74        -8.6470   -3.8370    1.8840 h1        1 MOL      0.039082
    167 H75        -9.8490   -5.0080    2.4780 h1        1 MOL      0.039082
    168 H76        -9.2360   -6.4760    0.6860 hn        1 MOL      0.266993
    169 Ca1         8.4880   -1.8270    0.7310 Ca        1 MOL      1.695510
    170 O24         8.7120   -3.6490   -1.3390 oh        1 MOL     -0.814720
    171 H77         8.3290   -4.5330   -1.3580 ho        1 MOL      0.382326
    172 H78         9.2250   -3.5960   -2.1500 ho        1 MOL      0.382326
    173 O25        10.9950   -1.7020   -0.5480 oh        1 MOL     -0.814720
    174 H79        10.9960   -1.2040   -1.3710 ho        1 MOL      0.382326
    175 H80        11.6630   -2.3710   -0.6730 ho        1 MOL      0.382326
    176 O26         9.7290    0.4790    1.1810 oh        1 MOL     -0.814720
    177 H81        10.5680    0.4000    0.7470 ho        1 MOL      0.382326
    178 H82         9.6900    1.3900    1.4750 ho        1 MOL      0.382326
    179 O27         9.7310   -3.9420    1.6370 oh        1 MOL     -0.814720
    180 H83        10.2290   -4.1940    2.4220 ho        1 MOL      0.382326
    181 H84        10.1030   -4.4760    0.9360 ho        1 MOL      0.382326
    182 O28         8.7650   -1.5970    3.3720 oh        1 MOL     -0.814720
    183 H85         9.2360   -0.9510    3.9110 ho        1 MOL      0.382326
    184 H86         8.5780   -2.3220    3.9730 ho        1 MOL      0.382326
@<TRIPOS>BOND
     1    1    2 1   
     2    1    4 1   
     3    1    5 1   
     4    1    6 1   
     5    2    3 2   
     6    2    7 1   
     7    7    8 1   
     8    7   15 1   
     9    8    9 1   
    10    8   11 1   
    11    8   16 1   
    12    9   10 2   
    13    9   19 1   
    14   11   12 1   
    15   11   17 1   
    16   11   18 1   
    17   12   13 1   
    18   12   14 1   
    19   19   20 1   
    20   19   24 1   
    21   20   21 1   
    22   20   23 1   
    23   20   25 1   
    24   21   22 2   
    25   21   29 1   
    26   23   26 1   
    27   23   27 1   
    28   23   28 1   
    29   29   30 1   
    30   29   37 1   
    31   30   31 1   
    32   30   33 1   
    33   30   38 1   
    34   31   32 2   
    35   31   41 1   
    36   33   34 1   
    37   33   39 1   
    38   33   40 1   
    39   34   35 1   
    40   34   36 1   
    41   41   42 1   
    42   41   45 1   
    43   42   43 1   
    44   42   46 1   
    45   42   47 1   
    46   43   44 2   
    47   43   48 1   
    48   48   49 1   
    49   48   56 1   
    50   49   50 1   
    51   49   52 1   
    52   49   57 1   
    53   50   51 2   
    54   50   62 1   
    55   52   53 1   
    56   52   58 1   
    57   52   59 1   
    58   53   54 1   
    59   53   55 2   
    60   54   60 1   
    61   54   61 1   
    62   62   63 1   
    63   62   66 1   
    64   63   64 1   
    65   63   67 1   
    66   63   68 1   
    67   64   65 2   
    68   64   69 1   
    69   69   70 1   
    70   69   76 1   
    71   70   71 1   
    72   70   73 1   
    73   70   77 1   
    74   71   72 2   
    75   71   83 1   
    76   73   74 1   
    77   73   75 1   
    78   73   78 1   
    79   74   80 1   
    80   74   81 1   
    81   74   82 1   
    82   75   79 1   
    83   83   84 1   
    84   83   91 1   
    85   84   85 1   
    86   84   87 1   
    87   84   92 1   
    88   85   86 2   
    89   85  102 1   
    90   87   88 1   
    91   87   89 1   
    92   87   93 1   
    93   88   90 1   
    94   88   94 1   
    95   88   95 1   
    96   89   96 1   
    97   89   97 1   
    98   89   98 1   
    99   90   99 1   
   100   90  100 1   
   101   90  101 1   
   102  102  103 1   
   103  102  110 1   
   104  103  104 1   
   105  103  106 1   
   106  103  111 1   
   107  104  105 2   
   108  104  114 1   
   109  106  107 1   
   110  106  112 1   
   111  106  113 1   
   112  107  108 1   
   113  107  109 1   
   114  114  115 1   
   115  114  125 1   
   116  115  116 1   
   117  115  118 1   
   118  115  126 1   
   119  116  117 2   
   120  116  134 1   
   121  118  119 1   
   122  118  127 1   
   123  118  128 1   
   124  119  120 ar  
   125  119  121 ar  
   126  120  122 ar  
   127  120  129 1   
   128  121  123 ar  
   129  121  130 1   
   130  122  124 ar  
   131  122  131 1   
   132  123  124 ar  
   133  123  132 1   
   134  124  133 1   
   135  134  135 1   
   136  134  140 1   
   137  135  136 1   
   138  135  138 1   
   139  135  141 1   
   140  136  137 2   
   141  136  148 1   
   142  138  139 1   
   143  138  142 1   
   144  138  143 1   
   145  139  140 1   
   146  139  144 1   
   147  139  145 1   
   148  140  146 1   
   149  140  147 1   
   150  148  149 1   
   151  148  157 1   
   152  149  150 1   
   153  149  152 1   
   154  149  158 1   
   155  150  151 2   
   156  150  163 1   
   157  152  153 1   
   158  152  159 1   
   159  152  160 1   
   160  153  154 1   
   161  153  161 1   
   162  153  162 1   
   163  154  155 1   
   164  154  156 1   
   165  163  164 1   
   166  163  168 1   
   167  164  165 1   
   168  164  166 1   
   169  164  167 1   
   170  170  171 1   
   171  170  172 1   
   172  173  174 1   
   173  173  175 1   
   174  176  177 1   
   175  176  178 1   
   176  179  180 1   
   177  179  181 1   
   178  182  183 1   
   179  182  184 1   
@<TRIPOS>SUBSTRUCTURE
     1 MOL         1 TEMP              0 ****  ****    0 ROOT
