@<TRIPOS>MOLECULE
MOL
  192   187     1     0     0
SMALL
resp


@<TRIPOS>ATOM
      1 C1         -4.5080   -4.1480    2.7950 c3        1 MOL     -0.385235
      2 C2         -3.4340   -3.9240    1.6840 c         1 MOL      0.728660
      3 O1         -3.0080   -2.8190    1.4180 o         1 MOL     -0.520453
      4 H1         -5.3620   -3.4950    2.6130 hc        1 MOL      0.076437
      5 H2         -4.8370   -5.1870    2.7790 hc        1 MOL      0.076437
      6 H3         -4.0780   -3.9190    3.7700 hc        1 MOL      0.076437
      7 N1         -3.0930   -4.9750    0.9960 n         1 MOL     -0.858657
      8 C3         -2.0830   -5.0050   -0.1610 c3        1 MOL      0.067871
      9 C4         -0.6390   -4.6240    0.2290 c         1 MOL      0.684310
     10 O2          0.2010   -4.7750   -0.6610 o         1 MOL     -0.555901
     11 C5         -2.6900   -4.3340   -1.4410 c3        1 MOL     -0.546273
     12 C6         -4.1640   -4.7610   -1.7310 c         1 MOL      0.988750
     13 O3         -4.3910   -5.9160   -2.1450 o         1 MOL     -0.763937
     14 O4         -5.1160   -3.9950   -1.5290 o         1 MOL     -0.763937
     15 H4         -3.5490   -5.8410    1.2430 hn        1 MOL      0.433318
     16 H5         -2.0890   -6.0680   -0.4260 h1        1 MOL      0.117179
     17 H6         -2.1400   -4.7430   -2.2910 hc        1 MOL      0.152870
     18 H7         -2.7210   -3.2550   -1.3790 hc        1 MOL      0.152870
     19 N2         -0.3540   -4.2360    1.4950 n         1 MOL     -0.500440
     20 C7          0.9940   -3.8410    2.0070 c3        1 MOL     -0.016435
     21 C8          1.9940   -4.9350    1.9600 c         1 MOL      0.353821
     22 O5          1.6390   -6.1120    2.0860 o         1 MOL     -0.524309
     23 C9          0.9740   -3.4250    3.5690 c3        1 MOL      0.319938
     24 C10         0.0300   -4.3630    4.4310 c3        1 MOL      0.232429
     25 C11         0.5460   -1.9440    3.7100 c3        1 MOL     -0.130263
     26 C12         0.4120   -4.3160    5.8870 c3        1 MOL     -0.184570
     27 H8         -1.1270   -4.1870    2.1520 hn        1 MOL      0.280974
     28 H9          1.4120   -3.0430    1.3930 h1        1 MOL      0.003978
     29 H10         1.9750   -3.5030    3.9760 hc        1 MOL     -0.023821
     30 H11         0.0570   -5.3970    4.1070 hc        1 MOL     -0.052093
     31 H12        -1.0030   -4.0320    4.3530 hc        1 MOL     -0.052093
     32 H13         1.1960   -1.3890    3.0270 hc        1 MOL      0.014283
     33 H14        -0.4980   -1.8860    3.4180 hc        1 MOL      0.014283
     34 H15         0.6580   -1.6390    4.7460 hc        1 MOL      0.014283
     35 H16        -0.2630   -4.9550    6.4510 hc        1 MOL      0.024770
     36 H17         1.4800   -4.4610    6.0370 hc        1 MOL      0.024770
     37 H18         0.1310   -3.3190    6.2170 hc        1 MOL      0.024770
     38 N3          3.3210   -4.6210    1.7900 n         1 MOL     -0.331394
     39 C13         3.9840   -3.3160    1.8210 c3        1 MOL      0.020253
     40 C14         4.2280   -2.9350    0.3510 c         1 MOL      0.510748
     41 O6          4.6580   -1.8690    0.0560 o         1 MOL     -0.507033
     42 C15         5.3320   -3.3970    2.5240 c3        1 MOL     -0.282587
     43 C16         5.4010   -4.2450    3.8550 c         1 MOL      0.713446
     44 O7          4.3990   -4.3200    4.6310 o         1 MOL     -0.681006
     45 O8          6.5000   -4.7530    4.2040 o         1 MOL     -0.681006
     46 H19         3.8030   -5.4820    1.5700 hn        1 MOL      0.272053
     47 H20         3.5200   -2.4710    2.3330 h1        1 MOL      0.091057
     48 H21         5.5820   -2.3520    2.6940 hc        1 MOL      0.067126
     49 H22         6.0000   -3.7050    1.7220 hc        1 MOL      0.067126
     50 N4          4.0240   -3.8590   -0.6470 n         1 MOL     -0.329228
     51 C17         4.5110   -3.7760   -2.0100 c3        1 MOL     -0.204004
     52 C18         5.9970   -3.4760   -2.1430 c         1 MOL      0.612297
     53 O9          6.8370   -4.2420   -1.7540 o         1 MOL     -0.554292
     54 H23         3.5600   -4.6950   -0.3250 hn        1 MOL      0.284578
     55 H24         3.9820   -2.9830   -2.5520 h1        1 MOL      0.092461
     56 H25         4.3340   -4.6760   -2.6000 h1        1 MOL      0.092461
     57 N5          6.3110   -2.3080   -2.7380 n         1 MOL     -0.514001
     58 C19         7.6640   -1.8680   -3.0380 c3        1 MOL      0.088129
     59 C20         8.3200   -1.1600   -1.7830 c         1 MOL      0.345206
     60 O10         9.5350   -0.9110   -1.6590 o         1 MOL     -0.584794
     61 C21         7.7550   -0.9930   -4.3240 c3        1 MOL     -0.201538
     62 C22         6.9280    0.2930   -4.1880 c         1 MOL      0.730139
     63 O11         6.5520    0.7280   -3.0730 o         1 MOL     -0.710421
     64 O12         6.6910    0.8540   -5.2650 o         1 MOL     -0.710421
     65 H26         5.5440   -1.8130   -3.1720 hn        1 MOL      0.313849
     66 H27         8.3750   -2.6610   -3.2890 h1        1 MOL      0.070531
     67 H28         7.3390   -1.5500   -5.1720 hc        1 MOL      0.045322
     68 H29         8.7830   -0.8260   -4.6500 hc        1 MOL      0.045322
     69 N6          7.6110   -1.0340   -0.7280 n         1 MOL     -0.009402
     70 C23         8.0610   -0.3260    0.4870 c3        1 MOL     -0.250215
     71 C24         7.6550    1.1740    0.5040 c         1 MOL      0.532498
     72 O13         8.0820    1.9000    1.4140 o         1 MOL     -0.560745
     73 H30         6.6480   -1.3200   -0.8250 hn        1 MOL      0.128004
     74 H31         9.1180   -0.3860    0.7150 h1        1 MOL      0.124931
     75 H32         7.4950   -0.7410    1.3170 h1        1 MOL      0.124931
     76 N7          6.8860    1.7000   -0.4720 n         1 MOL     -0.207672
     77 C25         6.4980    3.1210   -0.5930 c3        1 MOL     -0.069666
     78 C26         5.7350    3.6790    0.6330 c         1 MOL      0.357931
     79 O14         5.6980    4.8880    0.8390 o         1 MOL     -0.497274
     80 C27         7.7390    3.9550   -1.0330 c3        1 MOL      0.215598
     81 C28         8.3210    3.7020   -2.4450 c3        1 MOL     -0.260833
     82 C29         9.4990    4.6410   -2.7420 c         1 MOL      0.685380
     83 N8         10.0930    4.5710   -3.9310 n         1 MOL     -0.811525
     84 O15         9.8280    5.5710   -2.0670 o         1 MOL     -0.571773
     85 H33         6.7050    1.1900   -1.3260 hn        1 MOL      0.199274
     86 H34         5.8110    3.0900   -1.4410 h1        1 MOL      0.081993
     87 H35         8.5320    3.8030   -0.2950 hc        1 MOL     -0.027488
     88 H36         7.5390    5.0220   -0.9120 hc        1 MOL     -0.027488
     89 H37         7.5160    3.9340   -3.1360 hc        1 MOL      0.088769
     90 H38         8.6860    2.6940   -2.6150 hc        1 MOL      0.088769
     91 H39         9.8870    3.7720   -4.5170 hn        1 MOL      0.345729
     92 H40        10.8590    5.1940   -4.1210 hn        1 MOL      0.345729
     93 N9          5.0820    2.7970    1.3970 n         1 MOL      0.033018
     94 C30         4.2270    3.0140    2.5510 c3        1 MOL     -0.287760
     95 C31         2.6900    3.1380    2.2830 c         1 MOL      0.679652
     96 O16         2.0080    4.0150    2.8830 o         1 MOL     -0.542566
     97 C32         4.6000    2.0030    3.6920 c3        1 MOL      0.211132
     98 C33         4.5490    0.5130    3.2340 c3        1 MOL     -0.136893
     99 C34         5.9610    2.2780    4.3670 c3        1 MOL     -0.136893
    100 H41         5.1120    1.8480    1.0500 hn        1 MOL      0.030115
    101 H42         4.4750    4.0170    2.9030 h1        1 MOL      0.109053
    102 H43         3.9200    2.0780    4.5410 hc        1 MOL     -0.023820
    103 H44         4.7210   -0.1590    4.0740 hc        1 MOL      0.031559
    104 H45         3.5990    0.2790    2.7660 hc        1 MOL      0.031559
    105 H46         5.3620    0.2880    2.5430 hc        1 MOL      0.031559
    106 H47         6.0640    3.3490    4.5280 hc        1 MOL      0.031559
    107 H48         6.0770    1.8580    5.3640 hc        1 MOL      0.031559
    108 H49         6.7290    1.9260    3.6760 hc        1 MOL      0.031559
    109 N10         2.1710    2.2680    1.4080 n         1 MOL     -0.703215
    110 C35         0.7250    2.0980    1.2720 c3        1 MOL      0.268374
    111 C36         0.1640    3.1650    0.3200 c         1 MOL      0.455317
    112 O17         0.7970    4.0120   -0.2790 o         1 MOL     -0.489015
    113 C37         0.5130    0.6910    0.6840 c3        1 MOL     -0.114720
    114 C38        -0.9020    0.1340    0.7970 c         1 MOL      0.494776
    115 N11        -1.1030   -0.9130    0.0100 n         1 MOL     -0.590049
    116 O18        -1.6660    0.5460    1.7140 o         1 MOL     -0.537031
    117 H50         2.7690    1.6910    0.8310 hn        1 MOL      0.340818
    118 H51         0.1750    2.1970    2.2050 h1        1 MOL      0.043569
    119 H52         1.2200    0.0240    1.1830 hc        1 MOL      0.052824
    120 H53         0.9110    0.5720   -0.3240 hc        1 MOL      0.052824
    121 H54        -0.4480   -1.2220   -0.6910 hn        1 MOL      0.330745
    122 H55        -1.8960   -1.5030    0.2290 hn        1 MOL      0.330745
    123 N12        -1.1830    3.1920    0.2080 n         1 MOL     -0.389292
    124 C39        -2.0300    4.1950   -0.4610 c3        1 MOL      0.055069
    125 C40        -3.4810    4.1060    0.0340 c         1 MOL      0.637086
    126 O19        -3.8820    3.1050    0.6240 o         1 MOL     -0.615895
    127 C41        -1.9020    4.1200   -1.9850 c3        1 MOL     -0.075747
    128 C42        -2.0410    2.7320   -2.6230 ca        1 MOL      0.054149
    129 C43        -3.2950    2.2170   -2.9670 ca        1 MOL     -0.183421
    130 C44        -0.8570    1.9680   -2.8000 ca        1 MOL     -0.183421
    131 C45        -3.4020    0.9230   -3.4340 ca        1 MOL     -0.237182
    132 C46        -1.0040    0.6460   -3.3200 ca        1 MOL     -0.237182
    133 C47        -2.2530    0.0910   -3.6270 ca        1 MOL      0.295599
    134 O20        -2.4520   -1.1680   -4.0740 oh        1 MOL     -0.474943
    135 H56        -1.6760    2.5620    0.8370 hn        1 MOL      0.239853
    136 H57        -1.7620    5.2350   -0.2750 h1        1 MOL      0.055049
    137 H58        -0.9240    4.5030   -2.2890 hc        1 MOL      0.029286
    138 H59        -2.6520    4.7970   -2.3720 hc        1 MOL      0.029286
    139 H60        -4.1950    2.7660   -2.7200 ha        1 MOL      0.158254
    140 H61         0.0440    2.5430   -2.6130 ha        1 MOL      0.158254
    141 H62        -4.3650    0.5790   -3.7810 ha        1 MOL      0.135042
    142 H63        -0.1210    0.0330   -3.3020 ha        1 MOL      0.135042
    143 H64        -3.3680   -1.3270   -3.8200 ho        1 MOL      0.356875
    144 N13        -4.2680    5.1280   -0.1790 n         1 MOL     -0.482509
    145 C48        -5.6900    5.1770    0.2920 c3        1 MOL      0.201046
    146 C49        -6.6650    4.6770   -0.8350 c         1 MOL      0.460833
    147 O21        -6.9240    5.4160   -1.7490 o         1 MOL     -0.554722
    148 C50        -5.8710    6.6340    0.7950 c3        1 MOL     -0.137020
    149 C51        -4.9340    6.8770    2.0340 c3        1 MOL     -0.162333
    150 C52        -5.1920    8.3170    2.5730 c         1 MOL      0.666498
    151 O22        -5.5170    8.4530    3.7860 o         1 MOL     -0.676159
    152 O23        -5.1860    9.3090    1.7680 o         1 MOL     -0.676159
    153 H65        -3.7980    5.9460   -0.5130 hn        1 MOL      0.303529
    154 H66        -5.6820    4.4310    1.0890 h1        1 MOL      0.046400
    155 H67        -6.8810    6.7790    1.1670 hc        1 MOL      0.069946
    156 H68        -5.6970    7.4190    0.0600 hc        1 MOL      0.069946
    157 H69        -3.8790    6.6820    1.8270 hc        1 MOL      0.030001
    158 H70        -5.2700    6.2040    2.8230 hc        1 MOL      0.030001
    159 N14        -7.2650    3.4680   -0.8850 n         1 MOL     -0.443688
    160 C53        -7.0150    2.3600    0.0600 c3        1 MOL     -0.092097
    161 C54        -7.7520    2.3850    1.4670 c         1 MOL      0.422411
    162 O24        -8.6970    3.0950    1.6810 o         1 MOL     -0.509556
    163 C55        -7.5180    1.1070   -0.6360 c3        1 MOL      0.438384
    164 C56        -6.7140    0.7600   -1.8630 c3        1 MOL     -0.680351
    165 C57        -7.3120   -0.6180   -2.4140 c         1 MOL      0.885240
    166 O25        -6.6900   -1.6870   -2.2780 o         1 MOL     -0.681419
    167 O26        -8.4120   -0.5340   -2.9090 o         1 MOL     -0.681419
    168 H71        -7.7640    3.1510   -1.7040 hn        1 MOL      0.334041
    169 H72        -5.9650    2.1390    0.2480 h1        1 MOL      0.129607
    170 H73        -8.5570    1.1670   -0.9520 hc        1 MOL     -0.106665
    171 H74        -7.5330    0.3280    0.1250 hc        1 MOL     -0.106665
    172 H75        -5.6500    0.7740   -1.6250 hc        1 MOL      0.124368
    173 H76        -6.8860    1.5840   -2.5650 hc        1 MOL      0.124368
    174 N15        -7.1960    1.6490    2.3780 n         1 MOL     -0.284301
    175 C58        -7.6170    1.5450    3.7620 c3        1 MOL     -0.001235
    176 H77        -8.6450    1.8960    3.8550 h1        1 MOL      0.041992
    177 H78        -7.5590    0.5050    4.0830 h1        1 MOL      0.041992
    178 H79        -6.9670    2.1570    4.3870 h1        1 MOL      0.041992
    179 H80        -6.5610    0.9470    2.0240 hn        1 MOL      0.264570
    180 Ca1        -7.6250   -3.9760   -1.4610 Ca        1 MOL      1.720622
    181 O27        -8.1400   -2.5540    0.7320 oh        1 MOL     -1.007316
    182 H81        -8.7180   -3.0320    1.3300 ho        1 MOL      0.459351
    183 H82        -7.5960   -2.0260    1.3090 ho        1 MOL      0.459351
    184 O28        -7.7090   -4.3250   -4.0070 oh        1 MOL     -1.007316
    185 H83        -8.5380   -4.1010   -4.4450 ho        1 MOL      0.459351
    186 H84        -7.1980   -4.7600   -4.6910 ho        1 MOL      0.459351
    187 O29        -9.8530   -2.6450   -2.2790 oh        1 MOL     -1.007316
    188 H85        -9.4680   -1.7920   -2.4830 ho        1 MOL      0.459351
    189 H86       -10.7760   -2.4570   -2.1070 ho        1 MOL      0.459351
    190 O30        -7.0920   -6.5530   -1.9450 oh        1 MOL     -1.007316
    191 H87        -7.3840   -7.3610   -2.3710 ho        1 MOL      0.459351
    192 H88        -6.1720   -6.4660   -2.1910 ho        1 MOL      0.459351
@<TRIPOS>BOND
     1    1    2 1   
     2    1    4 1   
     3    1    5 1   
     4    1    6 1   
     5    2    3 2   
     6    2    7 1   
     7    7    8 1   
     8    7   15 1   
     9    8    9 1   
    10    8   11 1   
    11    8   16 1   
    12    9   10 2   
    13    9   19 1   
    14   11   12 1   
    15   11   17 1   
    16   11   18 1   
    17   12   13 1   
    18   12   14 1   
    19   19   20 1   
    20   19   27 1   
    21   20   21 1   
    22   20   23 1   
    23   20   28 1   
    24   21   22 2   
    25   21   38 1   
    26   23   24 1   
    27   23   25 1   
    28   23   29 1   
    29   24   26 1   
    30   24   30 1   
    31   24   31 1   
    32   25   32 1   
    33   25   33 1   
    34   25   34 1   
    35   26   35 1   
    36   26   36 1   
    37   26   37 1   
    38   38   39 1   
    39   38   46 1   
    40   39   40 1   
    41   39   42 1   
    42   39   47 1   
    43   40   41 2   
    44   40   50 1   
    45   42   43 1   
    46   42   48 1   
    47   42   49 1   
    48   43   44 1   
    49   43   45 1   
    50   50   51 1   
    51   50   54 1   
    52   51   52 1   
    53   51   55 1   
    54   51   56 1   
    55   52   53 2   
    56   52   57 1   
    57   57   58 1   
    58   57   65 1   
    59   58   59 1   
    60   58   61 1   
    61   58   66 1   
    62   59   60 2   
    63   59   69 1   
    64   61   62 1   
    65   61   67 1   
    66   61   68 1   
    67   62   63 1   
    68   62   64 1   
    69   69   70 1   
    70   69   73 1   
    71   70   71 1   
    72   70   74 1   
    73   70   75 1   
    74   71   72 2   
    75   71   76 1   
    76   76   77 1   
    77   76   85 1   
    78   77   78 1   
    79   77   80 1   
    80   77   86 1   
    81   78   79 2   
    82   78   93 1   
    83   80   81 1   
    84   80   87 1   
    85   80   88 1   
    86   81   82 1   
    87   81   89 1   
    88   81   90 1   
    89   82   83 1   
    90   82   84 2   
    91   83   91 1   
    92   83   92 1   
    93   93   94 1   
    94   93  100 1   
    95   94   95 1   
    96   94   97 1   
    97   94  101 1   
    98   95   96 2   
    99   95  109 1   
   100   97   98 1   
   101   97   99 1   
   102   97  102 1   
   103   98  103 1   
   104   98  104 1   
   105   98  105 1   
   106   99  106 1   
   107   99  107 1   
   108   99  108 1   
   109  109  110 1   
   110  109  117 1   
   111  110  111 1   
   112  110  113 1   
   113  110  118 1   
   114  111  112 2   
   115  111  123 1   
   116  113  114 1   
   117  113  119 1   
   118  113  120 1   
   119  114  115 1   
   120  114  116 2   
   121  115  121 1   
   122  115  122 1   
   123  123  124 1   
   124  123  135 1   
   125  124  125 1   
   126  124  127 1   
   127  124  136 1   
   128  125  126 2   
   129  125  144 1   
   130  127  128 1   
   131  127  137 1   
   132  127  138 1   
   133  128  129 ar  
   134  128  130 ar  
   135  129  131 ar  
   136  129  139 1   
   137  130  132 ar  
   138  130  140 1   
   139  131  133 ar  
   140  131  141 1   
   141  132  133 ar  
   142  132  142 1   
   143  133  134 1   
   144  134  143 1   
   145  144  145 1   
   146  144  153 1   
   147  145  146 1   
   148  145  148 1   
   149  145  154 1   
   150  146  147 2   
   151  146  159 1   
   152  148  149 1   
   153  148  155 1   
   154  148  156 1   
   155  149  150 1   
   156  149  157 1   
   157  149  158 1   
   158  150  151 1   
   159  150  152 1   
   160  159  160 1   
   161  159  168 1   
   162  160  161 1   
   163  160  163 1   
   164  160  169 1   
   165  161  162 2   
   166  161  174 1   
   167  163  164 1   
   168  163  170 1   
   169  163  171 1   
   170  164  165 1   
   171  164  172 1   
   172  164  173 1   
   173  165  166 1   
   174  165  167 1   
   175  174  175 1   
   176  174  179 1   
   177  175  176 1   
   178  175  177 1   
   179  175  178 1   
   180  181  182 1   
   181  181  183 1   
   182  184  185 1   
   183  184  186 1   
   184  187  188 1   
   185  187  189 1   
   186  190  191 1   
   187  190  192 1   
@<TRIPOS>SUBSTRUCTURE
     1 MOL         1 TEMP              0 ****  ****    0 ROOT
