@<TRIPOS>MOLECULE
MOL
  192   187     1     0     0
SMALL
resp


@<TRIPOS>ATOM
      1 C1          4.5840    4.4770   -3.1370 c3        1 MOL     -0.312380
      2 C2          5.2570    3.4400   -2.2390 c         1 MOL      0.710388
      3 O1          4.5590    2.8450   -1.4200 o         1 MOL     -0.690312
      4 H1          4.8910    4.3160   -4.1700 hc        1 MOL      0.084202
      5 H2          3.5020    4.3760   -3.0610 hc        1 MOL      0.084202
      6 H3          4.8790    5.4780   -2.8220 hc        1 MOL      0.084202
      7 N1          6.5200    3.0620   -2.4910 n         1 MOL     -0.626048
      8 C3          7.2170    1.8720   -1.9810 c3        1 MOL      0.120095
      9 C4          6.3170    0.6740   -1.7410 c         1 MOL      0.418421
     10 O2          6.0500    0.3690   -0.5450 o         1 MOL     -0.457139
     11 C5          8.1980    2.1000   -0.7830 c3        1 MOL      0.060763
     12 C6          7.8380    2.8170    0.4310 c         1 MOL      0.624749
     13 O3          6.6260    3.2040    0.5130 o         1 MOL     -0.690658
     14 O4          8.7160    3.1280    1.2560 o         1 MOL     -0.690658
     15 H4          7.0260    3.6860   -3.1050 hn        1 MOL      0.329095
     16 H5          7.8820    1.6520   -2.8130 h1        1 MOL      0.021192
     17 H6          8.9600    2.7550   -1.2070 hc        1 MOL     -0.009369
     18 H7          8.8110    1.2080   -0.6420 hc        1 MOL     -0.009369
     19 N2          5.8460   -0.0060   -2.7790 n         1 MOL     -0.507048
     20 C7          5.1010   -1.2000   -2.8280 c3        1 MOL      0.035762
     21 C8          5.7000   -2.4490   -2.1780 c         1 MOL      0.512162
     22 O5          5.8760   -3.3450   -2.9790 o         1 MOL     -0.570236
     23 C9          3.6030   -0.9900   -2.5220 c3        1 MOL      0.547627
     24 C10         2.8500   -2.2330   -2.8770 c3        1 MOL     -0.161998
     25 C11         3.0650    0.3070   -3.1720 c3        1 MOL     -0.233400
     26 C12         2.9100   -2.6880   -4.3400 c3        1 MOL     -0.365357
     27 H8          5.8760    0.5160   -3.6410 hn        1 MOL      0.294410
     28 H9          5.1250   -1.4020   -3.9030 h1        1 MOL      0.045382
     29 H10         3.5230   -0.9210   -1.4350 hc        1 MOL     -0.238069
     30 H11         1.8000   -2.0640   -2.6540 hc        1 MOL      0.106742
     31 H12         3.1280   -3.0580   -2.2170 hc        1 MOL      0.106742
     32 H13         3.7790    1.0610   -2.8460 hc        1 MOL      0.035176
     33 H14         2.9870    0.2480   -4.2610 hc        1 MOL      0.035176
     34 H15         2.1500    0.5940   -2.6610 hc        1 MOL      0.035176
     35 H16         2.4050   -1.8910   -4.8850 hc        1 MOL      0.076128
     36 H17         3.9090   -2.8080   -4.7590 hc        1 MOL      0.076128
     37 H18         2.3420   -3.6180   -4.3600 hc        1 MOL      0.076128
     38 N3          6.1980   -2.4560   -0.9360 n         1 MOL     -0.131037
     39 C13         6.7780   -3.5630   -0.2880 c3        1 MOL     -0.086181
     40 C14         6.0090   -4.8700   -0.1980 c         1 MOL      0.622201
     41 O6          6.6060   -5.9340   -0.4570 o         1 MOL     -0.577799
     42 C15         7.4870   -3.2170    1.0840 c3        1 MOL     -0.317633
     43 C16         8.4480   -2.0590    1.0110 c         1 MOL      0.834073
     44 O7          8.4440   -1.2490    1.9180 o         1 MOL     -0.729028
     45 O8          9.4020   -2.0230    0.1860 o         1 MOL     -0.729028
     46 H19         6.0890   -1.5880   -0.4410 hn        1 MOL      0.131103
     47 H20         7.6000   -3.7970   -0.9600 h1        1 MOL      0.054977
     48 H21         8.0010   -4.0260    1.5910 hc        1 MOL      0.095827
     49 H22         6.7240   -2.9880    1.8280 hc        1 MOL      0.095827
     50 N4          4.6750   -4.7770    0.0760 n         1 MOL     -0.566831
     51 C17         3.9110   -3.6790    0.6940 c3        1 MOL      0.285295
     52 C18         2.5820   -4.2360    1.3000 c         1 MOL      0.575177
     53 O9          2.2010   -5.3750    1.0030 o         1 MOL     -0.578652
     54 H23         4.1240   -5.6210    0.0070 hn        1 MOL      0.276570
     55 H24         3.6720   -3.0350   -0.1510 h1        1 MOL     -0.045446
     56 H25         4.4680   -3.1800    1.4920 h1        1 MOL     -0.045446
     57 N5          1.8190   -3.5820    2.2060 n         1 MOL     -0.416317
     58 C19         2.0460   -2.2470    2.7890 c3        1 MOL      0.063215
     59 C20         2.1820   -1.0110    1.8420 c         1 MOL      0.722579
     60 O10         3.2870   -0.4590    1.6680 o         1 MOL     -0.652953
     61 C21         3.0220   -2.3440    3.8450 c3        1 MOL     -0.426920
     62 C22         2.9450   -3.5760    4.8010 c         1 MOL      0.747843
     63 O11         3.8720   -4.4240    4.8770 o         1 MOL     -0.718006
     64 O12         1.9560   -3.6570    5.5800 o         1 MOL     -0.718006
     65 H26         1.0850   -4.1260    2.6410 hn        1 MOL      0.292829
     66 H27         1.1720   -2.0500    3.4050 h1        1 MOL      0.020760
     67 H28         2.9750   -1.4740    4.4990 hc        1 MOL      0.101849
     68 H29         4.0350   -2.3040    3.4300 hc        1 MOL      0.101849
     69 N6          1.1570   -0.5390    1.1830 n         1 MOL     -0.451131
     70 C23        -0.2180   -1.0520    1.2330 c3        1 MOL      0.023662
     71 C24        -0.4870   -2.2730    0.3250 c         1 MOL      0.501217
     72 O13         0.3080   -2.5980   -0.5500 o         1 MOL     -0.506578
     73 H30         1.3500    0.2570    0.5960 hn        1 MOL      0.264794
     74 H31        -0.8970   -0.1990    1.1580 h1        1 MOL      0.061440
     75 H32        -0.4560   -1.3520    2.2530 h1        1 MOL      0.061440
     76 N7         -1.7030   -2.8570    0.5710 n         1 MOL     -0.585185
     77 C25        -2.2260   -4.0270   -0.1730 c3        1 MOL      0.301819
     78 C26        -2.7000   -3.7560   -1.6570 c         1 MOL      0.250786
     79 O14        -2.7730   -4.6920   -2.5000 o         1 MOL     -0.489839
     80 C27        -3.4040   -4.7350    0.5910 c3        1 MOL     -0.205814
     81 C28        -4.8260   -4.0960    0.5060 c3        1 MOL      0.135589
     82 C29        -5.8850   -4.9050    1.1930 c         1 MOL      0.531559
     83 N8         -7.1480   -4.7800    0.8540 n         1 MOL     -0.725868
     84 O15        -5.6280   -5.3520    2.3420 o         1 MOL     -0.577720
     85 H33        -2.2160   -2.5600    1.3820 hn        1 MOL      0.305974
     86 H34        -1.4780   -4.8110   -0.2840 h1        1 MOL      0.076295
     87 H35        -3.0710   -4.9410    1.6100 hc        1 MOL      0.055302
     88 H36        -3.5470   -5.6080   -0.0430 hc        1 MOL      0.055302
     89 H37        -5.0030   -4.0900   -0.5710 hc        1 MOL     -0.003263
     90 H38        -4.8810   -3.0660    0.8660 hc        1 MOL     -0.003263
     91 H39        -7.4940   -4.2380    0.0720 hn        1 MOL      0.332219
     92 H40        -7.7620   -5.3800    1.3900 hn        1 MOL      0.332219
     93 N9         -3.0670   -2.5300   -1.9550 n         1 MOL     -0.105798
     94 C30        -3.4490   -2.1150   -3.3230 c3        1 MOL     -0.158061
     95 C31        -4.7520   -1.2350   -3.2610 c         1 MOL      0.439336
     96 O16        -5.1750   -0.7230   -4.3170 o         1 MOL     -0.528608
     97 C32        -2.3220   -1.3510   -4.0660 c3        1 MOL      0.334448
     98 C33        -1.0700   -2.1170   -4.4740 c3        1 MOL     -0.305213
     99 C34        -1.8210   -0.1260   -3.3060 c3        1 MOL     -0.305213
    100 H41        -2.7720   -1.7800   -1.3390 hn        1 MOL      0.133705
    101 H42        -3.6810   -2.9990   -3.9120 h1        1 MOL      0.130959
    102 H43        -2.8710   -0.9680   -4.9250 hc        1 MOL     -0.037521
    103 H44        -0.5630   -2.4660   -3.5700 hc        1 MOL      0.071559
    104 H45        -1.2930   -3.0070   -5.0720 hc        1 MOL      0.071559
    105 H46        -0.4220   -1.3830   -4.9320 hc        1 MOL      0.071559
    106 H47        -1.2840   -0.4850   -2.4210 hc        1 MOL      0.071559
    107 H48        -1.2120    0.4180   -4.0280 hc        1 MOL      0.071559
    108 H49        -2.6860    0.5120   -3.1430 hc        1 MOL      0.071559
    109 N10        -5.4720   -1.1380   -2.1430 n         1 MOL     -0.288648
    110 C35        -6.8150   -0.4460   -2.1580 c3        1 MOL      0.010910
    111 C36        -6.8980    0.8880   -1.3840 c         1 MOL      0.526148
    112 O17        -7.8890    1.6040   -1.5350 o         1 MOL     -0.555645
    113 C37        -7.9000   -1.3680   -1.4680 c3        1 MOL     -0.190990
    114 C38        -8.0300   -2.6790   -2.2300 c         1 MOL      0.626630
    115 N11        -8.3070   -2.7620   -3.5160 n         1 MOL     -0.777495
    116 O18        -7.8100   -3.6940   -1.5950 o         1 MOL     -0.557924
    117 H50        -5.1340   -1.5860   -1.3060 hn        1 MOL      0.205568
    118 H51        -7.2060   -0.2090   -3.1460 h1        1 MOL      0.080470
    119 H52        -8.8610   -0.8600   -1.5120 hc        1 MOL      0.076951
    120 H53        -7.6170   -1.4980   -0.4190 hc        1 MOL      0.076951
    121 H54        -8.2690   -1.9440   -4.1110 hn        1 MOL      0.380840
    122 H55        -8.5180   -3.6870   -3.8760 hn        1 MOL      0.380840
    123 N12        -5.9440    1.2100   -0.4940 n         1 MOL     -0.367670
    124 C39        -6.0540    2.1820    0.6030 c3        1 MOL      0.148149
    125 C40        -4.7130    2.9890    0.6230 c         1 MOL      0.298726
    126 O19        -3.6680    2.4670    0.3690 o         1 MOL     -0.435751
    127 C41        -6.2210    1.4400    1.9540 c3        1 MOL      0.008061
    128 C42        -7.2850    0.4220    2.1560 ca        1 MOL      0.014560
    129 C43        -8.6570    0.8700    2.1060 ca        1 MOL     -0.136372
    130 C44        -7.0920   -0.9550    2.3110 ca        1 MOL     -0.136372
    131 C45        -9.7470   -0.0370    2.2900 ca        1 MOL     -0.232270
    132 C46        -8.1520   -1.8520    2.3490 ca        1 MOL     -0.232270
    133 C47        -9.4760   -1.4120    2.3070 ca        1 MOL      0.317275
    134 O20       -10.5350   -2.2970    2.4040 oh        1 MOL     -0.536677
    135 H56        -5.1110    0.6500   -0.4780 hn        1 MOL      0.193588
    136 H57        -6.8610    2.9040    0.4680 h1        1 MOL      0.041125
    137 H58        -6.3490    2.1690    2.7560 hc        1 MOL      0.043696
    138 H59        -5.2740    0.9570    2.2110 hc        1 MOL      0.043696
    139 H60        -8.7620    1.9110    1.8420 ha        1 MOL      0.113728
    140 H61        -6.0740   -1.3130    2.2320 ha        1 MOL      0.113728
    141 H62       -10.7820    0.2710    2.2570 ha        1 MOL      0.147124
    142 H63        -7.9920   -2.9050    2.5200 ha        1 MOL      0.147124
    143 H64       -10.1990   -3.1920    2.4820 ho        1 MOL      0.386499
    144 N13        -4.7920    4.2570    0.8940 n         1 MOL     -0.368753
    145 C48        -3.6780    5.0970    1.1720 c3        1 MOL      0.074462
    146 C49        -2.7100    5.4230    0.0670 c         1 MOL      0.245916
    147 O21        -2.3420    6.6200   -0.0930 o         1 MOL     -0.528734
    148 C50        -2.8750    4.6720    2.4060 c3        1 MOL      0.378704
    149 C51        -3.6750    4.9320    3.6820 c3        1 MOL     -0.503592
    150 C52        -2.7210    4.6100    4.8620 c         1 MOL      0.736026
    151 O22        -1.9510    3.6470    4.8630 o         1 MOL     -0.721782
    152 O23        -2.6700    5.4320    5.8580 o         1 MOL     -0.721782
    153 H65        -5.6910    4.7260    0.9380 hn        1 MOL      0.283645
    154 H66        -4.1330    6.0700    1.3890 h1        1 MOL      0.038872
    155 H67        -2.0270    5.3400    2.5130 hc        1 MOL     -0.004816
    156 H68        -2.4940    3.6610    2.2350 hc        1 MOL     -0.004816
    157 H69        -4.5820    4.3410    3.5850 hc        1 MOL      0.057605
    158 H70        -3.9780    5.9810    3.7560 hc        1 MOL      0.057605
    159 N14        -2.1280    4.4380   -0.5880 n         1 MOL     -0.083013
    160 C53        -0.9010    4.5920   -1.3490 c3        1 MOL     -0.243007
    161 C54        -1.1720    5.5140   -2.5430 c         1 MOL      0.578300
    162 O24        -0.2160    6.1230   -3.0010 o         1 MOL     -0.572016
    163 C55        -0.4350    3.2520   -1.7510 c3        1 MOL     -0.014762
    164 C56        -0.3180    2.2120   -0.6060 c3        1 MOL      0.032772
    165 C57         0.8640    2.6290    0.3430 c         1 MOL      0.685715
    166 O25         1.9480    1.9620    0.1460 o         1 MOL     -0.655476
    167 O26         0.7330    3.6280    1.1660 o         1 MOL     -0.655476
    168 H71        -2.4110    3.5440   -0.2050 hn        1 MOL      0.168380
    169 H72        -0.1240    5.0700   -0.7570 h1        1 MOL      0.171232
    170 H73         0.5110    3.3370   -2.2960 hc        1 MOL      0.020827
    171 H74        -1.1520    2.8430   -2.4700 hc        1 MOL      0.020827
    172 H75        -0.0120    1.2650   -1.0540 hc        1 MOL     -0.037655
    173 H76        -1.2210    2.0980    0.0030 hc        1 MOL     -0.037655
    174 N15        -2.3860    5.5890   -3.0090 n         1 MOL     -0.187866
    175 C58        -2.8580    6.5040   -4.0450 c3        1 MOL     -0.440787
    176 H77        -2.4000    6.2390   -4.9980 h1        1 MOL      0.151613
    177 H78        -3.9410    6.4290   -4.1300 h1        1 MOL      0.151613
    178 H79        -2.5830    7.5250   -3.7820 h1        1 MOL      0.151613
    179 H80        -3.0740    5.0570   -2.5060 hn        1 MOL      0.199959
    180 Ca1         4.4250    1.8340    1.0320 Ca        1 MOL      1.806150
    181 O27         2.9400    1.9980    3.4470 oh        1 MOL     -0.840101
    182 H81         2.9290    1.8450    4.3970 ho        1 MOL      0.398402
    183 H82         2.5430    2.8690    3.3510 ho        1 MOL      0.398402
    184 O28         5.7520    2.9220    3.1690 oh        1 MOL     -0.840101
    185 H83         6.0620    2.4540    3.9500 ho        1 MOL      0.398402
    186 H84         6.1040    3.8010    3.2640 ho        1 MOL      0.398402
    187 O29         3.3520    4.5760    1.0630 oh        1 MOL     -0.840101
    188 H85         3.4290    5.5280    1.0180 ho        1 MOL      0.398402
    189 H86         2.4370    4.3970    0.8610 ho        1 MOL      0.398402
    190 O30         6.2150    0.2430    2.4040 oh        1 MOL     -0.840101
    191 H87         5.9130   -0.1100    3.2450 ho        1 MOL      0.398402
    192 H88         7.1210   -0.0530    2.3380 ho        1 MOL      0.398402
@<TRIPOS>BOND
     1    1    2 1   
     2    1    4 1   
     3    1    5 1   
     4    1    6 1   
     5    2    3 2   
     6    2    7 1   
     7    7    8 1   
     8    7   15 1   
     9    8    9 1   
    10    8   11 1   
    11    8   16 1   
    12    9   10 2   
    13    9   19 1   
    14   11   12 1   
    15   11   17 1   
    16   11   18 1   
    17   12   13 1   
    18   12   14 1   
    19   19   20 1   
    20   19   27 1   
    21   20   21 1   
    22   20   23 1   
    23   20   28 1   
    24   21   22 2   
    25   21   38 1   
    26   23   24 1   
    27   23   25 1   
    28   23   29 1   
    29   24   26 1   
    30   24   30 1   
    31   24   31 1   
    32   25   32 1   
    33   25   33 1   
    34   25   34 1   
    35   26   35 1   
    36   26   36 1   
    37   26   37 1   
    38   38   39 1   
    39   38   46 1   
    40   39   40 1   
    41   39   42 1   
    42   39   47 1   
    43   40   41 2   
    44   40   50 1   
    45   42   43 1   
    46   42   48 1   
    47   42   49 1   
    48   43   44 1   
    49   43   45 1   
    50   50   51 1   
    51   50   54 1   
    52   51   52 1   
    53   51   55 1   
    54   51   56 1   
    55   52   53 2   
    56   52   57 1   
    57   57   58 1   
    58   57   65 1   
    59   58   59 1   
    60   58   61 1   
    61   58   66 1   
    62   59   60 2   
    63   59   69 1   
    64   61   62 1   
    65   61   67 1   
    66   61   68 1   
    67   62   63 1   
    68   62   64 1   
    69   69   70 1   
    70   69   73 1   
    71   70   71 1   
    72   70   74 1   
    73   70   75 1   
    74   71   72 2   
    75   71   76 1   
    76   76   77 1   
    77   76   85 1   
    78   77   78 1   
    79   77   80 1   
    80   77   86 1   
    81   78   79 2   
    82   78   93 1   
    83   80   81 1   
    84   80   87 1   
    85   80   88 1   
    86   81   82 1   
    87   81   89 1   
    88   81   90 1   
    89   82   83 1   
    90   82   84 2   
    91   83   91 1   
    92   83   92 1   
    93   93   94 1   
    94   93  100 1   
    95   94   95 1   
    96   94   97 1   
    97   94  101 1   
    98   95   96 2   
    99   95  109 1   
   100   97   98 1   
   101   97   99 1   
   102   97  102 1   
   103   98  103 1   
   104   98  104 1   
   105   98  105 1   
   106   99  106 1   
   107   99  107 1   
   108   99  108 1   
   109  109  110 1   
   110  109  117 1   
   111  110  111 1   
   112  110  113 1   
   113  110  118 1   
   114  111  112 2   
   115  111  123 1   
   116  113  114 1   
   117  113  119 1   
   118  113  120 1   
   119  114  115 1   
   120  114  116 2   
   121  115  121 1   
   122  115  122 1   
   123  123  124 1   
   124  123  135 1   
   125  124  125 1   
   126  124  127 1   
   127  124  136 1   
   128  125  126 2   
   129  125  144 1   
   130  127  128 1   
   131  127  137 1   
   132  127  138 1   
   133  128  129 ar  
   134  128  130 ar  
   135  129  131 ar  
   136  129  139 1   
   137  130  132 ar  
   138  130  140 1   
   139  131  133 ar  
   140  131  141 1   
   141  132  133 ar  
   142  132  142 1   
   143  133  134 1   
   144  134  143 1   
   145  144  145 1   
   146  144  153 1   
   147  145  146 1   
   148  145  148 1   
   149  145  154 1   
   150  146  147 2   
   151  146  159 1   
   152  148  149 1   
   153  148  155 1   
   154  148  156 1   
   155  149  150 1   
   156  149  157 1   
   157  149  158 1   
   158  150  151 1   
   159  150  152 1   
   160  159  160 1   
   161  159  168 1   
   162  160  161 1   
   163  160  163 1   
   164  160  169 1   
   165  161  162 2   
   166  161  174 1   
   167  163  164 1   
   168  163  170 1   
   169  163  171 1   
   170  164  165 1   
   171  164  172 1   
   172  164  173 1   
   173  165  166 1   
   174  165  167 1   
   175  174  175 1   
   176  174  179 1   
   177  175  176 1   
   178  175  177 1   
   179  175  178 1   
   180  181  182 1   
   181  181  183 1   
   182  184  185 1   
   183  184  186 1   
   184  187  188 1   
   185  187  189 1   
   186  190  191 1   
   187  190  192 1   
@<TRIPOS>SUBSTRUCTURE
     1 MOL         1 TEMP              0 ****  ****    0 ROOT
