@<TRIPOS>MOLECULE
MOL
  185   180     1     0     0
SMALL
resp


@<TRIPOS>ATOM
      1 C1         -6.3120    2.9180   -0.8260 c3        1 MOL     -0.272339
      2 C2         -7.3470    1.7830   -0.4390 c         1 MOL      0.648631
      3 O1         -7.2590    1.2450    0.6380 o         1 MOL     -0.489550
      4 H1         -6.7630    3.5850   -1.5600 hc        1 MOL      0.060844
      5 H2         -6.0460    3.4870    0.0650 hc        1 MOL      0.060844
      6 H3         -5.4160    2.4650   -1.2500 hc        1 MOL      0.060844
      7 N1         -8.3320    1.4350   -1.3010 n         1 MOL     -0.378835
      8 C3         -9.2700    0.3080   -1.1600 c3        1 MOL     -0.263466
      9 C4         -8.7510   -1.1620   -1.1760 c         1 MOL      0.609245
     10 O2         -9.5150   -2.1030   -1.0070 o         1 MOL     -0.525687
     11 C5        -10.2640    0.6290   -0.0400 c3        1 MOL     -0.192549
     12 C6        -11.1200    1.8710   -0.1480 c         1 MOL      0.716687
     13 O3        -10.7900    2.9210    0.4510 o         1 MOL     -0.690130
     14 O4        -12.2740    1.7730   -0.6850 o         1 MOL     -0.690130
     15 H4         -8.2360    1.8980   -2.1970 hn        1 MOL      0.261897
     16 H5         -9.8550    0.3720   -2.0820 h1        1 MOL      0.106741
     17 H6         -9.6970    0.6150    0.8930 hc        1 MOL      0.082123
     18 H7        -10.9420   -0.2160    0.0320 hc        1 MOL      0.082123
     19 N2         -7.4290   -1.3300   -1.3360 n         1 MOL     -0.327322
     20 C7         -6.7320   -2.6030   -1.3420 c3        1 MOL      0.058232
     21 C8         -5.4870   -2.6270   -0.4210 c         1 MOL      0.605840
     22 O5         -5.3270   -3.6530    0.1960 o         1 MOL     -0.571975
     23 C9         -6.4510   -3.1290   -2.7720 c3        1 MOL     -0.374139
     24 C10        -7.6880   -3.5450   -3.6010 c3        1 MOL      0.027248
     25 C11        -8.4140   -4.8670   -3.1720 c3        1 MOL     -0.185158
     26 C12        -9.7340   -5.0960   -3.8780 c3        1 MOL      0.135979
     27 N3        -10.9080   -4.3160   -3.2840 n4        1 MOL     -0.524156
     28 H8         -6.8250   -0.5530   -1.5510 hn        1 MOL      0.169800
     29 H9         -7.3640   -3.3750   -0.8980 h1        1 MOL      0.071798
     30 H10        -5.8560   -4.0300   -2.6220 hc        1 MOL      0.134654
     31 H11        -5.8850   -2.3790   -3.3140 hc        1 MOL      0.134654
     32 H12        -7.3010   -3.8130   -4.5820 hc        1 MOL      0.024653
     33 H13        -8.4490   -2.7690   -3.7000 hc        1 MOL      0.024653
     34 H14        -8.5520   -4.8690   -2.0890 hc        1 MOL      0.107340
     35 H15        -7.7120   -5.6340   -3.4980 hc        1 MOL      0.107340
     36 H16       -10.0070   -6.1480   -3.8700 hx        1 MOL      0.061585
     37 H17        -9.6360   -4.9210   -4.9450 hx        1 MOL      0.061585
     38 H18       -10.9800   -3.4620   -3.8090 hn        1 MOL      0.339751
     39 H19       -11.7730   -4.8570   -3.2930 hn        1 MOL      0.339751
     40 H20       -10.8110   -4.1990   -2.2890 hn        1 MOL      0.339751
     41 N4         -4.7720   -1.5450   -0.2840 n         1 MOL     -0.545469
     42 C13        -3.5500   -1.5030    0.5050 c3        1 MOL      0.102582
     43 C14        -3.8730   -0.7900    1.8440 c         1 MOL      0.552425
     44 O6         -4.4580    0.2970    1.9270 o         1 MOL     -0.533805
     45 C15        -2.5230   -0.8270   -0.3560 c3        1 MOL     -0.214906
     46 C16        -1.1960   -0.6430    0.3720 c         1 MOL      0.684128
     47 O7         -1.1060   -0.1910    1.5530 o         1 MOL     -0.690945
     48 O8         -0.2310   -1.3730    0.0400 o         1 MOL     -0.690945
     49 H21        -5.0480   -0.7520   -0.8540 hn        1 MOL      0.340151
     50 H22        -3.1890   -2.5130    0.6870 h1        1 MOL      0.128073
     51 H23        -2.9700    0.0810   -0.7650 hc        1 MOL      0.054370
     52 H24        -2.3330   -1.4460   -1.2310 hc        1 MOL      0.054370
     53 N5         -3.6030   -1.5180    2.8920 n         1 MOL     -0.291219
     54 C17        -4.0100   -1.1900    4.2990 c3        1 MOL     -0.042546
     55 C18        -3.3550    0.1150    4.7630 c         1 MOL      0.482631
     56 O9         -3.9590    0.6840    5.7390 o         1 MOL     -0.551769
     57 H25        -3.0860   -2.3810    2.7780 hn        1 MOL      0.202532
     58 H26        -3.6740   -2.0020    4.9470 h1        1 MOL      0.084467
     59 H27        -5.0930   -1.1290    4.3990 h1        1 MOL      0.084467
     60 N6         -2.2830    0.6380    4.1250 n         1 MOL     -0.259254
     61 C19        -1.6390    1.9200    4.5520 c3        1 MOL      0.000460
     62 C20        -1.3370    2.9530    3.4350 c         1 MOL      0.495939
     63 O10        -0.8700    4.0840    3.7480 o         1 MOL     -0.539845
     64 C21        -0.4550    1.6330    5.5120 c3        1 MOL     -0.267137
     65 C22         0.8760    1.5150    4.6800 c         1 MOL      0.723060
     66 N7          1.8790    2.2110    5.0410 n         1 MOL     -0.760497
     67 O11         0.9470    0.6850    3.8580 o         1 MOL     -0.660416
     68 H28        -1.9010    0.1380    3.3370 hn        1 MOL      0.159222
     69 H29        -2.2630    2.4790    5.2350 h1        1 MOL      0.124035
     70 H30        -0.6430    0.7690    6.1500 hc        1 MOL      0.091052
     71 H31        -0.4170    2.6040    6.0100 hc        1 MOL      0.091052
     72 H32         1.7360    2.8950    5.7690 hn        1 MOL      0.361136
     73 H33         2.6270    2.1900    4.3670 hn        1 MOL      0.361136
     74 N8         -1.5260    2.5570    2.1700 n         1 MOL     -0.341688
     75 C23        -1.3480    3.4900    0.9720 c3        1 MOL     -0.140762
     76 C24         0.1050    3.5260    0.5300 c         1 MOL      0.766261
     77 O12         1.0190    3.0210    1.2210 o         1 MOL     -0.614761
     78 H34        -1.5830    1.5790    1.9490 hn        1 MOL      0.244695
     79 H35        -1.5460    4.5000    1.3270 h1        1 MOL      0.114421
     80 H36        -2.0290    3.2400    0.1570 h1        1 MOL      0.114421
     81 N9          0.3490    4.0930   -0.6160 n         1 MOL     -0.696836
     82 C25         1.6790    4.2400   -1.3230 c3        1 MOL      0.219738
     83 C26         2.2730    2.8770   -1.5210 c         1 MOL      0.422058
     84 O13         1.4830    1.8330   -1.4430 o         1 MOL     -0.476199
     85 C27         1.3780    4.9620   -2.6320 c3        1 MOL     -0.089631
     86 C28         0.8930    6.3920   -2.5130 ca        1 MOL      0.116701
     87 C29         1.1700    7.2300   -1.4030 ca        1 MOL     -0.249908
     88 C30         0.1300    6.8740   -3.5860 ca        1 MOL     -0.249908
     89 C31         0.7160    8.5480   -1.3240 ca        1 MOL     -0.206646
     90 C32        -0.3960    8.1600   -3.5330 ca        1 MOL     -0.206646
     91 C33        -0.0540    8.9870   -2.4170 ca        1 MOL      0.298258
     92 O14        -0.4620   10.2760   -2.4430 oh        1 MOL     -0.455032
     93 H37        -0.4580    4.5100   -1.0620 hn        1 MOL      0.336341
     94 H38         2.4690    4.8310   -0.8550 h1        1 MOL      0.002376
     95 H39         0.6440    4.4210   -3.2240 hc        1 MOL      0.051206
     96 H40         2.3280    4.9720   -3.1590 hc        1 MOL      0.051206
     97 H41         1.6320    6.8090   -0.5340 ha        1 MOL      0.167175
     98 H42        -0.0910    6.4120   -4.5320 ha        1 MOL      0.167175
     99 H43         1.0720    9.1650   -0.5040 ha        1 MOL      0.159690
    100 H44        -1.0760    8.5030   -4.3010 ha        1 MOL      0.159690
    101 H45        -0.1320   10.6540   -1.6320 ho        1 MOL      0.349100
    102 N10         3.5070    2.7070   -1.8070 n         1 MOL     -0.362481
    103 C34         4.2290    1.4760   -2.0940 c3        1 MOL     -0.019957
    104 C35         5.2720    1.1810   -0.9570 c         1 MOL      0.034924
    105 O15         5.4410   -0.0230   -0.7220 o         1 MOL     -0.224821
    106 C36         5.0260    1.6670   -3.4580 c3        1 MOL      0.100115
    107 C37         4.1120    2.1000   -4.6590 c3        1 MOL      0.038858
    108 C38         5.7430    0.4060   -3.8210 c3        1 MOL     -0.590665
    109 C39         3.0300    1.0440   -4.9370 c3        1 MOL     -0.316188
    110 H46         4.1080    3.5190   -1.8750 hn        1 MOL      0.280632
    111 H47         3.6030    0.5810   -2.1620 h1        1 MOL      0.131613
    112 H48         5.6570    2.5340   -3.2790 hc        1 MOL     -0.025064
    113 H49         4.7690    2.2420   -5.5090 hc        1 MOL      0.013845
    114 H50         3.6360    3.0670   -4.4920 hc        1 MOL      0.013845
    115 H51         6.6080    0.3710   -3.1500 hc        1 MOL      0.174028
    116 H52         5.1320   -0.4890   -3.7200 hc        1 MOL      0.174028
    117 H53         6.1190    0.4500   -4.8400 hc        1 MOL      0.174028
    118 H54         2.2650    1.1400   -4.1690 hc        1 MOL      0.104105
    119 H55         2.6730    1.1520   -5.9580 hc        1 MOL      0.104105
    120 H56         3.4250    0.0260   -4.8950 hc        1 MOL      0.104105
    121 N11         5.9820    2.1200   -0.4330 n         1 MOL     -0.115627
    122 C40         7.0140    1.9370    0.6890 c3        1 MOL      0.054221
    123 C41         7.7630    0.6000    0.5070 c         1 MOL      0.384158
    124 O16         7.8900   -0.1340    1.4850 o         1 MOL     -0.465873
    125 C42         7.9950    3.1560    0.7990 c3        1 MOL      0.200564
    126 O17         7.2400    4.3550    0.9520 oh        1 MOL     -0.608411
    127 H57         5.7490    3.0820   -0.6220 hn        1 MOL      0.229021
    128 H58         6.6080    1.8560    1.6910 h1        1 MOL      0.051095
    129 H59         8.4960    3.1550   -0.1720 h1        1 MOL      0.012786
    130 H60         8.6710    3.0780    1.6550 h1        1 MOL      0.012786
    131 H61         7.8900    5.0150    1.1800 ho        1 MOL      0.412869
    132 N12         8.2670    0.2870   -0.6810 n         1 MOL     -0.406866
    133 C43         9.0310   -0.9210   -0.9940 c3        1 MOL      0.172397
    134 C44         8.4250   -2.2610   -0.4570 c         1 MOL      0.605571
    135 O18         9.1120   -3.1780   -0.1640 o         1 MOL     -0.540572
    136 C45        10.4710   -0.6410   -0.7480 c3        1 MOL     -0.374306
    137 H62         8.0430    0.9290   -1.4260 hn        1 MOL      0.287122
    138 H63         9.0210   -0.9430   -2.0860 h1        1 MOL      0.064087
    139 H64        11.0490   -1.3960   -1.2810 hc        1 MOL      0.102928
    140 H65        10.7880    0.2750   -1.2540 hc        1 MOL      0.102928
    141 H66        10.7870   -0.5330    0.2890 hc        1 MOL      0.102928
    142 N13         7.1120   -2.3290   -0.5040 n         1 MOL     -0.576783
    143 C46         6.4070   -3.4550    0.1600 c3        1 MOL      0.464125
    144 C47         5.2060   -3.9440   -0.6220 c         1 MOL      0.434510
    145 O19         4.7110   -3.2640   -1.5210 o         1 MOL     -0.477842
    146 C48         5.9680   -3.0980    1.5950 c3        1 MOL     -0.408157
    147 H67         6.6080   -1.4910   -0.7440 hn        1 MOL      0.122825
    148 H68         7.1360   -4.2640    0.2290 h1        1 MOL     -0.010633
    149 H69         6.8340   -2.8260    2.1960 hc        1 MOL      0.096244
    150 H70         5.3410   -2.2020    1.5890 hc        1 MOL      0.096244
    151 H71         5.4190   -3.9130    2.0540 hc        1 MOL      0.096244
    152 N14         4.7920   -5.1000   -0.1480 n         1 MOL     -0.548406
    153 C49         3.6390   -5.9020   -0.6340 c3        1 MOL     -0.171231
    154 C50         3.7110   -6.1210   -2.2330 c         1 MOL      0.482425
    155 O20         2.7010   -6.4440   -2.8360 o         1 MOL     -0.492152
    156 C51         2.3170   -5.2370   -0.1750 c3        1 MOL      0.139456
    157 C52         2.2390   -5.3260    1.3830 c3        1 MOL     -0.026245
    158 C53         0.8750   -4.8640    1.9510 c         1 MOL      0.515886
    159 O21         0.7170   -3.6490    1.9510 o         1 MOL     -0.645492
    160 O22         0.0700   -5.7420    2.2880 o         1 MOL     -0.645492
    161 H72         5.2650   -5.4960    0.6540 hn        1 MOL      0.338017
    162 H73         3.7890   -6.8820   -0.1810 h1        1 MOL      0.125312
    163 H74         1.5200   -5.9000   -0.5230 hc        1 MOL      0.035192
    164 H75         2.1270   -4.2300   -0.5400 hc        1 MOL      0.035192
    165 H76         3.0560   -4.7630    1.8390 hc        1 MOL     -0.021762
    166 H77         2.3900   -6.3490    1.7320 hc        1 MOL     -0.021762
    167 N15         4.9030   -6.0430   -2.8510 n         1 MOL     -0.250293
    168 C54         5.1050   -5.9370   -4.2360 c3        1 MOL     -0.202217
    169 H78         6.0550   -5.4400   -4.4280 h1        1 MOL      0.097683
    170 H79         5.1210   -6.9340   -4.6780 h1        1 MOL      0.097683
    171 H80         4.2950   -5.3560   -4.6790 h1        1 MOL      0.097683
    172 H81         5.6900   -5.8430   -2.2590 hn        1 MOL      0.226473
    173 Ca1         1.2590   -1.2040    2.1300 Ca        1 MOL      1.729878
    174 O23         3.3240   -1.7830    3.8180 oh        1 MOL     -0.857406
    175 H82         3.5430   -2.2960    4.5910 ho        1 MOL      0.426746
    176 H83         4.1350   -1.3260    3.5950 ho        1 MOL      0.426746
    177 O24        -0.4120   -2.1150    4.0550 oh        1 MOL     -0.857406
    178 H84        -0.3920   -2.2140    5.0080 ho        1 MOL      0.426746
    179 H85        -0.9000   -2.8760    3.7480 ho        1 MOL      0.426746
    180 O25         2.6630    0.9970    1.1770 oh        1 MOL     -0.857406
    181 O26         3.0010   -1.7450   -0.0440 oh        1 MOL     -0.857406
    182 H86         3.2370    1.3680    1.8400 ho        1 MOL      0.426746
    183 H87         3.5390   -0.9580   -0.1590 ho        1 MOL      0.426746
    184 H88         1.9860    1.6590    1.0600 ho        1 MOL      0.426746
    185 H89         3.2710   -2.3270   -0.7580 ho        1 MOL      0.426746
@<TRIPOS>BOND
     1    1    2 1   
     2    1    4 1   
     3    1    5 1   
     4    1    6 1   
     5    2    3 2   
     6    2    7 1   
     7    7    8 1   
     8    7   15 1   
     9    8    9 1   
    10    8   11 1   
    11    8   16 1   
    12    9   10 2   
    13    9   19 1   
    14   11   12 1   
    15   11   17 1   
    16   11   18 1   
    17   12   13 1   
    18   12   14 1   
    19   19   20 1   
    20   19   28 1   
    21   20   21 1   
    22   20   23 1   
    23   20   29 1   
    24   21   22 2   
    25   21   41 1   
    26   23   24 1   
    27   23   30 1   
    28   23   31 1   
    29   24   25 1   
    30   24   32 1   
    31   24   33 1   
    32   25   26 1   
    33   25   34 1   
    34   25   35 1   
    35   26   27 1   
    36   26   36 1   
    37   26   37 1   
    38   27   38 1   
    39   27   39 1   
    40   27   40 1   
    41   41   42 1   
    42   41   49 1   
    43   42   43 1   
    44   42   45 1   
    45   42   50 1   
    46   43   44 2   
    47   43   53 1   
    48   45   46 1   
    49   45   51 1   
    50   45   52 1   
    51   46   47 1   
    52   46   48 1   
    53   53   54 1   
    54   53   57 1   
    55   54   55 1   
    56   54   58 1   
    57   54   59 1   
    58   55   56 2   
    59   55   60 1   
    60   60   61 1   
    61   60   68 1   
    62   61   62 1   
    63   61   64 1   
    64   61   69 1   
    65   62   63 2   
    66   62   74 1   
    67   64   65 1   
    68   64   70 1   
    69   64   71 1   
    70   65   66 1   
    71   65   67 2   
    72   66   72 1   
    73   66   73 1   
    74   74   75 1   
    75   74   78 1   
    76   75   76 1   
    77   75   79 1   
    78   75   80 1   
    79   76   77 2   
    80   76   81 1   
    81   81   82 1   
    82   81   93 1   
    83   82   83 1   
    84   82   85 1   
    85   82   94 1   
    86   83   84 2   
    87   83  102 1   
    88   85   86 1   
    89   85   95 1   
    90   85   96 1   
    91   86   87 ar  
    92   86   88 ar  
    93   87   89 ar  
    94   87   97 1   
    95   88   90 ar  
    96   88   98 1   
    97   89   91 ar  
    98   89   99 1   
    99   90   91 ar  
   100   90  100 1   
   101   91   92 1   
   102   92  101 1   
   103  102  103 1   
   104  102  110 1   
   105  103  104 1   
   106  103  106 1   
   107  103  111 1   
   108  104  105 2   
   109  104  121 1   
   110  106  107 1   
   111  106  108 1   
   112  106  112 1   
   113  107  109 1   
   114  107  113 1   
   115  107  114 1   
   116  108  115 1   
   117  108  116 1   
   118  108  117 1   
   119  109  118 1   
   120  109  119 1   
   121  109  120 1   
   122  121  122 1   
   123  121  127 1   
   124  122  123 1   
   125  122  125 1   
   126  122  128 1   
   127  123  124 2   
   128  123  132 1   
   129  125  126 1   
   130  125  129 1   
   131  125  130 1   
   132  126  131 1   
   133  132  133 1   
   134  132  137 1   
   135  133  134 1   
   136  133  136 1   
   137  133  138 1   
   138  134  135 2   
   139  134  142 1   
   140  136  139 1   
   141  136  140 1   
   142  136  141 1   
   143  142  143 1   
   144  142  147 1   
   145  143  144 1   
   146  143  146 1   
   147  143  148 1   
   148  144  145 2   
   149  144  152 1   
   150  146  149 1   
   151  146  150 1   
   152  146  151 1   
   153  152  153 1   
   154  152  161 1   
   155  153  154 1   
   156  153  156 1   
   157  153  162 1   
   158  154  155 2   
   159  154  167 1   
   160  156  157 1   
   161  156  163 1   
   162  156  164 1   
   163  157  158 1   
   164  157  165 1   
   165  157  166 1   
   166  158  159 1   
   167  158  160 1   
   168  167  168 1   
   169  167  172 1   
   170  168  169 1   
   171  168  170 1   
   172  168  171 1   
   173  174  175 1   
   174  174  176 1   
   175  177  178 1   
   176  177  179 1   
   177  180  182 1   
   178  180  184 1   
   179  181  183 1   
   180  181  185 1   
@<TRIPOS>SUBSTRUCTURE
     1 MOL         1 TEMP              0 ****  ****    0 ROOT
