@<TRIPOS>MOLECULE
MOL
  189   185     1     0     0
SMALL
resp


@<TRIPOS>ATOM
      1 C1         -6.2390   -3.2470    3.1780 c3        1 MOL      0.069568
      2 C2         -5.0510   -3.1290    2.2320 c         1 MOL      0.595771
      3 O1         -4.4060   -2.0740    2.1920 o         1 MOL     -0.475170
      4 H1         -5.9670   -3.8770    4.0240 hc        1 MOL     -0.042121
      5 H2         -6.5170   -2.2570    3.5380 hc        1 MOL     -0.042121
      6 H3         -7.0820   -3.6930    2.6490 hc        1 MOL     -0.042121
      7 N1         -4.6690   -4.2000    1.4460 n         1 MOL     -0.764601
      8 C3         -3.6040   -4.1700    0.4190 c3        1 MOL     -0.091705
      9 C4         -2.1690   -4.1220    0.9200 c         1 MOL      0.866374
     10 O2         -1.3010   -4.3430    0.0440 o         1 MOL     -0.611025
     11 C5         -3.9350   -3.2660   -0.8110 c3        1 MOL     -0.869891
     12 C6         -5.3940   -3.2640   -1.1890 c         1 MOL      0.813360
     13 O3         -6.0320   -2.1840   -1.2530 o         1 MOL     -0.636760
     14 O4         -5.9820   -4.3540   -1.6440 o         1 MOL     -0.636760
     15 H4         -5.3220   -4.9600    1.5270 hn        1 MOL      0.353345
     16 H5         -3.7180   -5.1780    0.0250 h1        1 MOL      0.155620
     17 H6         -3.3310   -3.6500   -1.6260 hc        1 MOL      0.292414
     18 H7         -3.5830   -2.2520   -0.6160 hc        1 MOL      0.292414
     19 N2         -1.9140   -4.0280    2.2420 n         1 MOL     -0.520237
     20 C7         -0.5930   -3.7430    2.7740 c3        1 MOL     -0.254117
     21 C8          0.2580   -5.0480    2.9250 c         1 MOL      0.623293
     22 O5         -0.3540   -5.9340    3.5750 o         1 MOL     -0.611487
     23 C9         -0.7040   -3.0990    4.1510 c3        1 MOL      0.101999
     24 C10        -1.3890   -1.7290    4.1520 c3        1 MOL      0.176778
     25 C11         0.6830   -2.9510    4.7490 c3        1 MOL     -0.341228
     26 C12        -2.4050   -1.5510    5.3420 c3        1 MOL     -0.517710
     27 H8         -2.7400   -4.0890    2.8300 hn        1 MOL      0.360602
     28 H9         -0.1510   -3.0480    2.0580 h1        1 MOL      0.148945
     29 H10        -1.3600   -3.7490    4.7400 hc        1 MOL      0.069784
     30 H11        -1.8990   -1.5390    3.2120 hc        1 MOL      0.005104
     31 H12        -0.6960   -0.8980    4.2790 hc        1 MOL      0.005104
     32 H13         1.4920   -2.7440    4.0500 hc        1 MOL      0.070736
     33 H14         0.7310   -2.0890    5.4280 hc        1 MOL      0.070736
     34 H15         1.0470   -3.8190    5.3030 hc        1 MOL      0.070736
     35 H16        -3.0260   -0.6810    5.1560 hc        1 MOL      0.123147
     36 H17        -2.9780   -2.4830    5.3510 hc        1 MOL      0.123147
     37 H18        -1.7180   -1.3850    6.1810 hc        1 MOL      0.123147
     38 N3          1.4770   -5.2380    2.4880 n         1 MOL     -0.475832
     39 C13         2.2520   -4.4740    1.4930 c3        1 MOL      0.095600
     40 C14         2.4810   -5.2880    0.2510 c         1 MOL      0.646206
     41 O6          2.6360   -6.5260    0.3720 o         1 MOL     -0.587957
     42 C15         3.6600   -4.1010    2.2240 c3        1 MOL     -0.182389
     43 C16         4.6550   -3.3680    1.3130 c         1 MOL      0.686699
     44 O7          5.8210   -3.8240    1.3000 o         1 MOL     -0.696180
     45 O8          4.2440   -2.4580    0.5960 o         1 MOL     -0.696180
     46 H19         1.8870   -6.1380    2.6870 hn        1 MOL      0.300231
     47 H20         1.8050   -3.5600    1.0960 h1        1 MOL      0.025748
     48 H21         4.0620   -5.0620    2.5480 hc        1 MOL      0.041128
     49 H22         3.4000   -3.4530    3.0570 hc        1 MOL      0.041128
     50 N4          2.6130   -4.6530   -0.9260 n         1 MOL     -0.472957
     51 C17         3.0940   -5.2200   -2.2170 c3        1 MOL     -0.033347
     52 C18         4.1650   -4.3220   -2.9530 c         1 MOL      0.545559
     53 O9          4.5300   -4.7170   -4.0540 o         1 MOL     -0.594514
     54 H23         2.5370   -3.6450   -0.9460 hn        1 MOL      0.311436
     55 H24         2.3020   -5.5260   -2.8990 h1        1 MOL      0.073828
     56 H25         3.5480   -6.1810   -1.9980 h1        1 MOL      0.073828
     57 N5          4.6440   -3.2700   -2.3160 n         1 MOL     -0.459661
     58 C19         5.6960   -2.4820   -2.9710 c3        1 MOL      0.238224
     59 C20         6.9670   -2.1620   -2.1840 c         1 MOL      0.352202
     60 O10         8.0530   -2.1100   -2.7690 o         1 MOL     -0.581309
     61 C21         5.1900   -1.2730   -3.7200 c3        1 MOL     -0.215472
     62 C22         4.3230   -0.3570   -2.8960 c         1 MOL      0.756269
     63 O11         4.8430    0.4190   -2.0380 o         1 MOL     -0.682368
     64 O12         3.0860   -0.3830   -3.0530 o         1 MOL     -0.682368
     65 H26         4.3250   -3.0910   -1.3770 hn        1 MOL      0.274202
     66 H27         6.1780   -3.0750   -3.7510 h1        1 MOL      0.061653
     67 H28         4.6450   -1.7370   -4.5440 hc        1 MOL      0.024981
     68 H29         6.0670   -0.7050   -4.0420 hc        1 MOL      0.024981
     69 N6          6.8810   -1.8920   -0.8720 n         1 MOL     -0.220331
     70 C23         7.9940   -1.4880   -0.0030 c3        1 MOL     -0.184579
     71 C24         8.3710    0.0090   -0.1360 c         1 MOL      0.399860
     72 O13         9.1580    0.4890    0.6370 o         1 MOL     -0.596681
     73 H30         5.9570   -1.8630   -0.4680 hn        1 MOL      0.317755
     74 H31         8.8700   -2.1130   -0.1760 h1        1 MOL      0.110114
     75 H32         7.6470   -1.7140    1.0010 h1        1 MOL      0.110114
     76 N7          7.5580    0.6850   -0.9460 n         1 MOL      0.249433
     77 C25         7.4610    2.1310   -1.1250 c3        1 MOL      0.122524
     78 C26         7.3650    2.9830    0.1430 c         1 MOL      0.468911
     79 O14         7.9060    4.0690    0.3040 o         1 MOL     -0.547766
     80 C27         8.4770    2.5750   -2.2440 c3        1 MOL      0.070725
     81 C28         8.4580    1.6620   -3.5020 c3        1 MOL     -0.033785
     82 C29         9.1680    2.1640   -4.7340 c         1 MOL      0.700053
     83 N8          9.5100    1.3670   -5.6990 n         1 MOL     -0.832338
     84 O15         9.3200    3.3310   -4.9390 o         1 MOL     -0.597765
     85 H33         6.7630    0.1440   -1.2700 hn        1 MOL     -0.148869
     86 H34         6.4870    2.3360   -1.5610 h1        1 MOL      0.059673
     87 H35         9.4480    2.5600   -1.7500 hc        1 MOL     -0.051607
     88 H36         8.1800    3.5860   -2.5290 hc        1 MOL     -0.051607
     89 H37         7.4370    1.4540   -3.8160 hc        1 MOL     -0.010796
     90 H38         8.9990    0.7890   -3.1250 hc        1 MOL     -0.010796
     91 H39         9.1850    0.4140   -5.6390 hn        1 MOL      0.354326
     92 H40        10.0040    1.7070   -6.5180 hn        1 MOL      0.354326
     93 N9          6.6980    2.4720    1.1700 n         1 MOL     -0.362909
     94 C30         6.4720    3.0610    2.5270 c3        1 MOL     -0.056910
     95 C31         4.9250    3.0830    2.9070 c         1 MOL      0.737628
     96 O16         4.5730    3.7760    3.8100 o         1 MOL     -0.604066
     97 C32         7.1720    2.2700    3.6530 c3        1 MOL      0.199903
     98 C33         6.7210    0.8060    3.5910 c3        1 MOL     -0.280573
     99 C34         8.7210    2.4540    3.5740 c3        1 MOL     -0.280573
    100 H41         6.3300    1.5350    1.0810 hn        1 MOL      0.198024
    101 H42         6.7330    4.1230    2.5210 h1        1 MOL      0.103414
    102 H43         6.9190    2.6360    4.6410 hc        1 MOL     -0.031091
    103 H44         6.7980    0.3690    2.5930 hc        1 MOL      0.070138
    104 H45         7.3990    0.2230    4.2120 hc        1 MOL      0.070138
    105 H46         5.7000    0.6010    3.9100 hc        1 MOL      0.070138
    106 H47         9.1790    1.7650    4.2840 hc        1 MOL      0.070138
    107 H48         9.0470    2.1070    2.5970 hc        1 MOL      0.070138
    108 H49         9.0360    3.4870    3.6900 hc        1 MOL      0.070138
    109 N10         4.0570    2.3990    2.0790 n         1 MOL     -0.823205
    110 C35         2.5910    2.3690    2.2900 c3        1 MOL      0.534535
    111 C36         1.8180    2.6390    1.0480 c         1 MOL      0.493514
    112 O17         2.2800    2.7260   -0.1060 o         1 MOL     -0.518266
    113 C37         2.2090    1.0640    2.8710 c3        1 MOL     -0.311877
    114 C38         1.0150    1.1050    3.8190 c         1 MOL      0.615740
    115 N11         1.2110    0.7250    5.0870 n         1 MOL     -0.815132
    116 O18        -0.0700    1.3960    3.4080 o         1 MOL     -0.497250
    117 H50         4.3260    1.7040    1.3930 hn        1 MOL      0.352201
    118 H51         2.2890    3.0940    3.0440 h1        1 MOL     -0.003427
    119 H52         3.0270    0.6500    3.4610 hc        1 MOL      0.103566
    120 H53         1.9790    0.3730    2.0570 hc        1 MOL      0.103566
    121 H54         2.1030    0.3590    5.3550 hn        1 MOL      0.375492
    122 H55         0.4030    0.6780    5.6970 hn        1 MOL      0.375492
    123 N12         0.4830    2.7910    1.1070 n         1 MOL     -0.679404
    124 C39        -0.5010    2.9020    0.0240 c3        1 MOL      0.344853
    125 C40        -1.7720    3.6540    0.4570 c         1 MOL      0.592923
    126 O19        -2.2370    3.3500    1.5700 o         1 MOL     -0.569471
    127 C41        -0.8690    1.5510   -0.6090 c3        1 MOL     -0.173867
    128 C42        -1.9510    1.5460   -1.7280 ca        1 MOL      0.017167
    129 C43        -1.7240    2.3150   -2.8790 ca        1 MOL     -0.115377
    130 C44        -3.0020    0.6430   -1.6770 ca        1 MOL     -0.115377
    131 C45        -2.6040    2.2800   -3.9690 ca        1 MOL     -0.292124
    132 C46        -3.8310    0.4270   -2.8030 ca        1 MOL     -0.292124
    133 C47        -3.6660    1.3130   -3.9290 ca        1 MOL      0.370536
    134 O20        -4.3720    1.1860   -5.0560 oh        1 MOL     -0.575457
    135 H56        -0.0010    2.6190    1.9780 hn        1 MOL      0.272436
    136 H57        -0.0870    3.5650   -0.7430 h1        1 MOL      0.023987
    137 H58        -1.2710    0.8520    0.1280 hc        1 MOL      0.093157
    138 H59         0.0490    1.1300   -1.0150 hc        1 MOL      0.093157
    139 H60        -0.8540    2.9150   -3.0710 ha        1 MOL      0.132517
    140 H61        -3.0810    0.0500   -0.7830 ha        1 MOL      0.132517
    141 H62        -2.4520    2.9780   -4.7760 ha        1 MOL      0.173612
    142 H63        -4.5140   -0.4110   -2.8380 ha        1 MOL      0.173612
    143 H64        -5.1680    0.6610   -4.9400 ho        1 MOL      0.428335
    144 N13        -2.3140    4.5220   -0.4060 n         1 MOL     -0.737561
    145 C48        -3.6910    5.0470   -0.2560 c3        1 MOL      0.576132
    146 C49        -4.5510    4.4580   -1.3180 c         1 MOL      0.407880
    147 O21        -4.5730    4.9020   -2.4810 o         1 MOL     -0.530839
    148 C50        -3.7480    6.6140   -0.2870 c3        1 MOL     -0.059637
    149 C51        -5.0790    7.2490   -0.0740 c3        1 MOL     -0.174518
    150 C52        -4.9790    8.7680   -0.0510 c         1 MOL      0.704535
    151 O22        -4.7670    9.2970    1.0680 o         1 MOL     -0.683819
    152 O23        -5.3370    9.4450   -1.0540 o         1 MOL     -0.683819
    153 H65        -1.8940    4.6080   -1.3100 hn        1 MOL      0.313344
    154 H66        -4.0150    4.8330    0.7630 h1        1 MOL     -0.011082
    155 H67        -3.3020    6.9090   -1.2370 hc        1 MOL     -0.011641
    156 H68        -3.0840    6.8620    0.5430 hc        1 MOL     -0.011641
    157 H69        -5.4780    6.9930    0.9140 hc        1 MOL      0.044604
    158 H70        -5.7910    6.8570   -0.7930 hc        1 MOL      0.044604
    159 N14        -5.2480    3.2910   -1.0620 n         1 MOL     -0.400631
    160 C53        -5.4650    2.5770    0.2520 c3        1 MOL     -0.256570
    161 C54        -6.1470    3.5390    1.3190 c         1 MOL      0.615544
    162 O24        -6.8360    4.4990    1.0030 o         1 MOL     -0.555839
    163 C55        -6.2690    1.2650    0.0980 c3        1 MOL     -0.219885
    164 C56        -7.5340    1.4790   -0.7430 c3        1 MOL     -0.098179
    165 C57        -8.1330    0.1170   -1.1020 c         1 MOL      0.640910
    166 O25        -8.3780   -0.8020   -0.3130 o         1 MOL     -0.760052
    167 O26        -8.3980   -0.2030   -2.2640 o         1 MOL     -0.760052
    168 H71        -5.5360    2.8510   -1.9260 hn        1 MOL      0.289100
    169 H72        -4.4850    2.2910    0.6430 h1        1 MOL      0.135569
    170 H73        -6.5110    0.7910    1.0540 hc        1 MOL      0.103771
    171 H74        -5.6230    0.5140   -0.3640 hc        1 MOL      0.103771
    172 H75        -7.2940    2.0710   -1.6260 hc        1 MOL      0.067828
    173 H76        -8.2710    2.0280   -0.1560 hc        1 MOL      0.067828
    174 N15        -5.7680    3.3840    2.5840 n         1 MOL     -0.276038
    175 C58        -5.8720    4.1290    3.8050 c3        1 MOL     -0.228741
    176 H77        -6.2010    5.1440    3.5840 h1        1 MOL      0.101073
    177 H78        -6.5960    3.6480    4.4640 h1        1 MOL      0.101073
    178 H79        -4.8990    4.1610    4.2950 h1        1 MOL      0.101073
    179 H80        -5.1460    2.5870    2.6470 hn        1 MOL      0.240161
    180 Ca1        -8.4420   -3.0110   -1.4530 Ca        1 MOL      1.597597
    181 O27        -7.7090   -4.0010   -4.0760 oh        1 MOL     -0.833342
    182 H81        -8.1350   -4.6870   -4.5810 ho        1 MOL      0.390102
    183 H82        -7.2790   -3.4430   -4.7220 ho        1 MOL      0.390102
    184 O28       -10.4640   -2.7710   -3.1160 oh        1 MOL     -0.833342
    185 H83       -11.2920   -2.3600   -2.8890 ho        1 MOL      0.390102
    186 H84       -10.5260   -2.9120   -4.0730 ho        1 MOL      0.390102
    187 O29        -9.1470   -5.5770   -1.6500 oh        1 MOL     -0.833342
    188 H85        -8.7870   -6.4710   -1.6840 ho        1 MOL      0.390102
    189 H86       -10.0310   -5.6840   -1.3220 ho        1 MOL      0.390102
@<TRIPOS>BOND
     1    1    2 1   
     2    1    4 1   
     3    1    5 1   
     4    1    6 1   
     5    2    3 2   
     6    2    7 1   
     7    7    8 1   
     8    7   15 1   
     9    8    9 1   
    10    8   11 1   
    11    8   16 1   
    12    9   10 2   
    13    9   19 1   
    14   11   12 1   
    15   11   17 1   
    16   11   18 1   
    17   12   13 1   
    18   12   14 1   
    19   19   20 1   
    20   19   27 1   
    21   20   21 1   
    22   20   23 1   
    23   20   28 1   
    24   21   22 2   
    25   21   38 1   
    26   23   24 1   
    27   23   25 1   
    28   23   29 1   
    29   24   26 1   
    30   24   30 1   
    31   24   31 1   
    32   25   32 1   
    33   25   33 1   
    34   25   34 1   
    35   26   35 1   
    36   26   36 1   
    37   26   37 1   
    38   38   39 1   
    39   38   46 1   
    40   39   40 1   
    41   39   42 1   
    42   39   47 1   
    43   40   41 2   
    44   40   50 1   
    45   42   43 1   
    46   42   48 1   
    47   42   49 1   
    48   43   44 1   
    49   43   45 1   
    50   50   51 1   
    51   50   54 1   
    52   51   52 1   
    53   51   55 1   
    54   51   56 1   
    55   52   53 2   
    56   52   57 1   
    57   57   58 1   
    58   57   65 1   
    59   58   59 1   
    60   58   61 1   
    61   58   66 1   
    62   59   60 2   
    63   59   69 1   
    64   61   62 1   
    65   61   67 1   
    66   61   68 1   
    67   62   63 1   
    68   62   64 1   
    69   69   70 1   
    70   69   73 1   
    71   70   71 1   
    72   70   74 1   
    73   70   75 1   
    74   71   72 2   
    75   71   76 1   
    76   76   77 1   
    77   76   85 1   
    78   77   78 1   
    79   77   80 1   
    80   77   86 1   
    81   78   79 2   
    82   78   93 1   
    83   80   81 1   
    84   80   87 1   
    85   80   88 1   
    86   81   82 1   
    87   81   89 1   
    88   81   90 1   
    89   82   83 1   
    90   82   84 2   
    91   83   91 1   
    92   83   92 1   
    93   93   94 1   
    94   93  100 1   
    95   94   95 1   
    96   94   97 1   
    97   94  101 1   
    98   95   96 2   
    99   95  109 1   
   100   97   98 1   
   101   97   99 1   
   102   97  102 1   
   103   98  103 1   
   104   98  104 1   
   105   98  105 1   
   106   99  106 1   
   107   99  107 1   
   108   99  108 1   
   109  109  110 1   
   110  109  117 1   
   111  110  111 1   
   112  110  113 1   
   113  110  118 1   
   114  111  112 2   
   115  111  123 1   
   116  113  114 1   
   117  113  119 1   
   118  113  120 1   
   119  114  115 1   
   120  114  116 2   
   121  115  121 1   
   122  115  122 1   
   123  123  124 1   
   124  123  135 1   
   125  124  125 1   
   126  124  127 1   
   127  124  136 1   
   128  125  126 2   
   129  125  144 1   
   130  127  128 1   
   131  127  137 1   
   132  127  138 1   
   133  128  129 ar  
   134  128  130 ar  
   135  129  131 ar  
   136  129  139 1   
   137  130  132 ar  
   138  130  140 1   
   139  131  133 ar  
   140  131  141 1   
   141  132  133 ar  
   142  132  142 1   
   143  133  134 1   
   144  134  143 1   
   145  144  145 1   
   146  144  153 1   
   147  145  146 1   
   148  145  148 1   
   149  145  154 1   
   150  146  147 2   
   151  146  159 1   
   152  148  149 1   
   153  148  155 1   
   154  148  156 1   
   155  149  150 1   
   156  149  157 1   
   157  149  158 1   
   158  150  151 1   
   159  150  152 1   
   160  159  160 1   
   161  159  168 1   
   162  160  161 1   
   163  160  163 1   
   164  160  169 1   
   165  161  162 2   
   166  161  174 1   
   167  163  164 1   
   168  163  170 1   
   169  163  171 1   
   170  164  165 1   
   171  164  172 1   
   172  164  173 1   
   173  165  166 1   
   174  165  167 1   
   175  174  175 1   
   176  174  179 1   
   177  175  176 1   
   178  175  177 1   
   179  175  178 1   
   180  181  182 1   
   181  181  183 1   
   182  184  185 1   
   183  184  186 1   
   184  187  188 1   
   185  187  189 1   
@<TRIPOS>SUBSTRUCTURE
     1 MOL         1 TEMP              0 ****  ****    0 ROOT
