@<TRIPOS>MOLECULE
MOL
  184   179     1     0     0
SMALL
resp


@<TRIPOS>ATOM
      1 C1          3.8240   -1.8540    4.0210 c3        1 MOL     -0.483335
      2 C2          4.7230   -0.9770    3.2440 c         1 MOL      0.642784
      3 O1          4.3150   -0.3580    2.2490 o         1 MOL     -0.625508
      4 H1          4.4120   -2.4430    4.7250 hc        1 MOL      0.128939
      5 H2          3.1060   -1.2440    4.5700 hc        1 MOL      0.128939
      6 H3          3.2910   -2.5220    3.3440 hc        1 MOL      0.128939
      7 N1          5.9940   -0.8350    3.5500 n         1 MOL     -0.182192
      8 C3          6.9800   -0.0830    2.8640 c3        1 MOL     -0.212556
      9 C4          7.9320   -0.9270    2.0200 c         1 MOL      0.744711
     10 O2          8.4060   -0.3800    1.0030 o         1 MOL     -0.583513
     11 C5          7.7920    0.7690    3.9070 c3        1 MOL     -0.399801
     12 C6          8.3880   -0.0280    5.1310 c         1 MOL      0.767228
     13 O3          8.9950    0.5550    6.0280 o         1 MOL     -0.711569
     14 O4          8.3120   -1.2860    5.1270 o         1 MOL     -0.711569
     15 H4          6.3480   -1.2920    4.3790 hn        1 MOL      0.164709
     16 H5          6.5430    0.7030    2.2470 h1        1 MOL      0.179100
     17 H6          7.1520    1.5680    4.2830 hc        1 MOL      0.098596
     18 H7          8.5760    1.2350    3.3200 hc        1 MOL      0.098596
     19 N2          8.0040   -2.2550    2.2210 n         1 MOL     -0.568474
     20 C7          8.3550   -3.1840    1.1220 c3        1 MOL      0.433552
     21 C8          7.3540   -3.0690   -0.0440 c         1 MOL      0.242754
     22 O5          7.6850   -3.0320   -1.2370 o         1 MOL     -0.438602
     23 C9          9.8740   -3.2020    0.7240 c3        1 MOL     -0.505504
     24 H8          7.5780   -2.6990    3.0170 hn        1 MOL      0.280468
     25 H9          8.2290   -4.1450    1.6230 h1        1 MOL     -0.007592
     26 H10         9.9900   -2.2140    0.2650 hc        1 MOL      0.131122
     27 H11        10.4770   -3.2060    1.6290 hc        1 MOL      0.131122
     28 H12        10.0590   -4.0410    0.0550 hc        1 MOL      0.131122
     29 N3          6.0470   -2.8340    0.3390 n         1 MOL     -0.492898
     30 C10         4.9000   -2.7830   -0.5570 c3        1 MOL      0.382811
     31 C11         4.9770   -1.6090   -1.5610 c         1 MOL      0.364296
     32 O6          4.6790   -1.7220   -2.7750 o         1 MOL     -0.551959
     33 C12         4.6230   -4.1590   -1.1850 c3        1 MOL     -0.097458
     34 C13         3.2500   -4.2540   -1.8750 c         1 MOL      0.694756
     35 O7          3.0070   -5.2320   -2.5850 o         1 MOL     -0.709063
     36 O8          2.4540   -3.2940   -1.6110 o         1 MOL     -0.709063
     37 H13         5.8250   -2.7860    1.3240 hn        1 MOL      0.221318
     38 H14         4.0240   -2.6340    0.0780 h1        1 MOL      0.011601
     39 H15         4.6360   -4.9380   -0.4160 hc        1 MOL      0.004022
     40 H16         5.3050   -4.2960   -2.0240 hc        1 MOL      0.004022
     41 N4          5.3240   -0.4260   -1.0840 n         1 MOL      0.024406
     42 C14         5.7510    0.8220   -1.7890 c3        1 MOL     -0.356463
     43 C15         4.7380    1.5920   -2.6790 c         1 MOL      0.734752
     44 O9          5.1190    2.3500   -3.5140 o         1 MOL     -0.622195
     45 H17         5.3470   -0.3600   -0.0710 hn        1 MOL      0.081271
     46 H18         6.6010    0.5310   -2.4110 h1        1 MOL      0.144797
     47 H19         6.0250    1.4610   -0.9490 h1        1 MOL      0.144797
     48 N5          3.4430    1.4080   -2.5230 n         1 MOL     -0.442164
     49 C16         2.3580    2.2650   -3.1140 c3        1 MOL     -0.032025
     50 C17         2.2800    3.7050   -2.5030 c         1 MOL      0.497985
     51 O10         2.2760    3.7930   -1.2420 o         1 MOL     -0.501067
     52 C18         0.9230    1.5580   -2.9820 c3        1 MOL     -0.196856
     53 C19        -0.1110    2.0660   -3.9440 c         1 MOL      0.567417
     54 N6         -0.8970    3.0550   -3.5900 n         1 MOL     -0.716138
     55 O11        -0.2690    1.5930   -5.0150 o         1 MOL     -0.594471
     56 H20         3.0880    0.6140   -2.0140 hn        1 MOL      0.244034
     57 H21         2.4790    2.4060   -4.1950 h1        1 MOL      0.064105
     58 H22         0.5650    1.8400   -1.9970 hc        1 MOL      0.184845
     59 H23         1.0310    0.4730   -3.0350 hc        1 MOL      0.184845
     60 H24        -0.9000    3.3250   -2.6140 hn        1 MOL      0.334862
     61 H25        -1.5810    3.3650   -4.2670 hn        1 MOL      0.334862
     62 N7          2.1000    4.7590   -3.3430 n         1 MOL     -0.263248
     63 C20         1.8750    6.1930   -2.8360 c3        1 MOL     -0.396140
     64 C21         0.6230    6.3480   -2.0720 c         1 MOL      0.657449
     65 O12        -0.4110    5.9390   -2.5810 o         1 MOL     -0.493580
     66 H26         2.2240    4.5780   -4.3270 hn        1 MOL      0.274807
     67 H27         1.8570    6.8470   -3.7070 h1        1 MOL      0.149695
     68 H28         2.6890    6.4370   -2.1510 h1        1 MOL      0.149695
     69 N8          0.6730    7.1610   -0.9660 n         1 MOL     -0.321348
     70 C22        -0.5540    7.7610   -0.3670 c3        1 MOL     -0.602065
     71 C23        -1.3200    6.8060    0.4960 c         1 MOL      0.593995
     72 O13        -2.2940    7.2160    1.1500 o         1 MOL     -0.564050
     73 C24        -0.1130    9.0550    0.4210 c3        1 MOL      0.569238
     74 C25         0.4940    8.7820    1.7710 c3        1 MOL     -0.276574
     75 O14         0.8190    9.9040   -0.2660 oh        1 MOL     -0.653927
     76 H29         1.5220    7.6020   -0.6380 hn        1 MOL      0.263533
     77 H30        -1.2010    8.1010   -1.1690 h1        1 MOL      0.233966
     78 H31        -0.9210    9.7590    0.6340 h1        1 MOL      0.029158
     79 H32         1.6340    9.4390   -0.4610 ho        1 MOL      0.376244
     80 H33         1.0700    9.6420    2.1040 hc        1 MOL      0.063617
     81 H34        -0.3290    8.5720    2.4540 hc        1 MOL      0.063617
     82 H35         1.1100    7.8840    1.7270 hc        1 MOL      0.063617
     83 N9         -0.9000    5.5230    0.6470 n         1 MOL     -0.144986
     84 C26        -1.7320    4.4280    1.1900 c3        1 MOL     -0.027725
     85 C27        -1.8240    3.2700    0.2190 c         1 MOL      0.334991
     86 O15        -1.1470    3.3460   -0.8000 o         1 MOL     -0.362622
     87 C28        -1.0560    3.9580    2.5550 c3        1 MOL      0.079155
     88 C29         0.4040    3.5100    2.2620 c3        1 MOL      0.006366
     89 C30        -1.2290    4.9160    3.7720 c3        1 MOL     -0.334358
     90 C31         0.9030    2.4610    3.2470 c3        1 MOL      0.038187
     91 H36        -0.0890    5.2240    0.1330 hn        1 MOL      0.101473
     92 H37        -2.7110    4.8070    1.4800 h1        1 MOL      0.078029
     93 H38        -1.5830    3.0450    2.8040 hc        1 MOL     -0.008240
     94 H39         1.0090    4.4120    2.2530 hc        1 MOL      0.007783
     95 H40         0.4520    3.0750    1.2660 hc        1 MOL      0.007783
     96 H41        -0.7170    5.8650    3.6020 hc        1 MOL      0.086225
     97 H42        -2.2570    5.2130    3.9420 hc        1 MOL      0.086225
     98 H43        -0.7660    4.5740    4.6930 hc        1 MOL      0.086225
     99 H44         1.9430    2.1870    3.0450 hc        1 MOL      0.001295
    100 H45         0.9650    2.9150    4.2370 hc        1 MOL      0.001295
    101 H46         0.3270    1.5530    3.3880 hc        1 MOL      0.001295
    102 N10        -2.5400    2.1800    0.5250 n         1 MOL     -0.375854
    103 C32        -2.6180    0.9550   -0.3330 c3        1 MOL     -0.073001
    104 C33        -3.9200    0.1740   -0.2810 c         1 MOL      0.500301
    105 O16        -4.1000   -1.0540   -0.5440 o         1 MOL     -0.462154
    106 C34        -1.4110   -0.0040   -0.0190 c3        1 MOL     -0.222709
    107 C35        -0.9150   -0.9000   -1.1970 c         1 MOL      0.780111
    108 O17        -1.7200   -1.1790   -2.1690 o         1 MOL     -0.777742
    109 O18         0.2740   -1.2800   -1.2560 o         1 MOL     -0.777742
    110 H47        -3.1450    2.2500    1.3300 hn        1 MOL      0.290231
    111 H48        -2.5830    1.3170   -1.3560 h1        1 MOL      0.115413
    112 H49        -1.6260   -0.7390    0.7560 hc        1 MOL      0.087675
    113 H50        -0.5650    0.5680    0.3610 hc        1 MOL      0.087675
    114 N11        -4.9970    0.8090    0.2670 n         1 MOL     -0.417431
    115 C36        -6.3560    0.1870    0.2330 c3        1 MOL      0.189449
    116 C37        -6.5840   -0.9120    1.2850 c         1 MOL      0.086793
    117 O19        -6.4240   -0.6390    2.4560 o         1 MOL     -0.407690
    118 C38        -7.4030    1.2220    0.5410 c3        1 MOL     -0.141404
    119 C39        -8.8440    0.7530    0.4190 ca        1 MOL      0.013240
    120 C40        -9.3480    0.6270   -0.8370 ca        1 MOL     -0.106248
    121 C41        -9.6030    0.3050    1.5190 ca        1 MOL     -0.106248
    122 C42       -10.6310    0.1640   -1.0300 ca        1 MOL     -0.137899
    123 C43       -10.9090   -0.2110    1.2920 ca        1 MOL     -0.137899
    124 C44       -11.4280   -0.2610    0.0240 ca        1 MOL     -0.078249
    125 H51        -4.7900    1.7320    0.6350 hn        1 MOL      0.228172
    126 H52        -6.5570   -0.2330   -0.7430 h1        1 MOL      0.021430
    127 H53        -7.3380    2.0920   -0.1140 hc        1 MOL      0.075555
    128 H54        -7.2970    1.6340    1.5480 hc        1 MOL      0.075555
    129 H55        -8.7790    1.0520   -1.6490 ha        1 MOL      0.113426
    130 H56        -9.1870    0.4730    2.5040 ha        1 MOL      0.113426
    131 H57       -10.9230    0.1500   -2.0670 ha        1 MOL      0.106325
    132 H58       -11.4620   -0.5880    2.1320 ha        1 MOL      0.106325
    133 H59       -12.4600   -0.5420   -0.1300 ha        1 MOL      0.095297
    134 N12        -6.9310   -2.1840    0.8680 n         1 MOL      0.128157
    135 C45        -6.9140   -3.3350    1.7380 c3        1 MOL      0.063462
    136 C46        -5.7150   -3.5840    2.6520 c         1 MOL      0.312737
    137 O20        -5.8600   -3.9550    3.8180 o         1 MOL     -0.525592
    138 C47        -7.0890   -4.5550    0.8310 c3        1 MOL      0.057218
    139 C48        -7.7320   -3.9530   -0.4020 c3        1 MOL     -0.108248
    140 C49        -7.2200   -2.5340   -0.5110 c3        1 MOL      0.007882
    141 H60        -7.8270   -3.2250    2.3250 h1        1 MOL      0.010745
    142 H61        -6.1210   -4.9940    0.6070 hc        1 MOL      0.007151
    143 H62        -7.7210   -5.3030    1.3340 hc        1 MOL      0.007151
    144 H63        -7.5710   -4.5940   -1.2660 hc        1 MOL      0.025714
    145 H64        -8.8130   -3.8420   -0.2760 hc        1 MOL      0.025714
    146 H65        -6.2930   -2.4850   -1.0730 h1        1 MOL      0.027109
    147 H66        -7.9640   -1.8410   -0.9060 h1        1 MOL      0.027109
    148 N13        -4.5670   -3.4090    2.0530 n         1 MOL     -0.160410
    149 C50        -3.2390   -3.6190    2.7030 c3        1 MOL     -0.256563
    150 C51        -2.9140   -2.4920    3.7950 c         1 MOL      0.390810
    151 O21        -1.8050   -2.5880    4.3990 o         1 MOL     -0.517650
    152 C52        -2.0590   -3.7070    1.6280 c3        1 MOL      0.065573
    153 C53        -2.1860   -5.0450    0.8910 c3        1 MOL     -0.271060
    154 C54        -1.3330   -5.1190   -0.4100 c         1 MOL      0.795195
    155 O22        -0.7940   -6.2020   -0.7770 o         1 MOL     -0.744924
    156 O23        -1.1260   -4.0580   -1.0440 o         1 MOL     -0.744924
    157 H67        -4.6060   -3.2510    1.0640 hn        1 MOL      0.256241
    158 H68        -3.3650   -4.5550    3.2380 h1        1 MOL      0.165413
    159 H69        -1.1110   -3.6460    2.1640 hc        1 MOL      0.081791
    160 H70        -2.1880   -2.9020    0.9050 hc        1 MOL      0.081791
    161 H71        -3.2080   -5.3290    0.6560 hc        1 MOL      0.047707
    162 H72        -1.8330   -5.7960    1.5980 hc        1 MOL      0.047707
    163 N14        -3.7320   -1.4640    4.1720 n         1 MOL     -0.089883
    164 C55        -3.5950   -0.4870    5.2470 c3        1 MOL     -0.174001
    165 H73        -4.5790   -0.0980    5.5100 h1        1 MOL      0.080504
    166 H74        -3.1490   -0.9650    6.1180 h1        1 MOL      0.080504
    167 H75        -2.9580    0.3330    4.9150 h1        1 MOL      0.080504
    168 H76        -4.5820   -1.4280    3.6300 hn        1 MOL      0.147688
    169 Ca1         0.2550   -3.1450   -3.0190 Ca        1 MOL      1.715143
    170 O24         0.4450   -4.2600   -5.3630 oh        1 MOL     -0.827398
    171 H77         0.0150   -3.8120   -6.0910 ho        1 MOL      0.396685
    172 H78         0.3820   -5.1930   -5.5750 ho        1 MOL      0.396685
    173 O25         2.2480   -1.4990   -3.9990 oh        1 MOL     -0.827398
    174 H79         3.1010   -1.7150   -3.6270 ho        1 MOL      0.396685
    175 H80         2.4520   -1.0440   -4.8230 ho        1 MOL      0.396685
    176 O26        -1.9940   -3.9480   -4.0060 oh        1 MOL     -0.827398
    177 H81        -2.7120   -4.0680   -3.3860 ho        1 MOL      0.396685
    178 H82        -2.4240   -3.8440   -4.8500 ho        1 MOL      0.396685
    179 O27         0.5880   -6.0030   -2.9250 oh        1 MOL     -0.827398
    180 H83         0.2520   -6.1230   -2.0330 ho        1 MOL      0.396685
    181 H84         1.5320   -5.8840   -2.8120 ho        1 MOL      0.396685
    182 O28        -0.5750   -1.0970   -4.5750 oh        1 MOL     -0.827398
    183 H85        -1.3000   -0.9110   -3.9780 ho        1 MOL      0.396685
    184 H86        -0.7020   -0.4770   -5.3010 ho        1 MOL      0.396685
@<TRIPOS>BOND
     1    1    2 1   
     2    1    4 1   
     3    1    5 1   
     4    1    6 1   
     5    2    3 2   
     6    2    7 1   
     7    7    8 1   
     8    7   15 1   
     9    8    9 1   
    10    8   11 1   
    11    8   16 1   
    12    9   10 2   
    13    9   19 1   
    14   11   12 1   
    15   11   17 1   
    16   11   18 1   
    17   12   13 1   
    18   12   14 1   
    19   19   20 1   
    20   19   24 1   
    21   20   21 1   
    22   20   23 1   
    23   20   25 1   
    24   21   22 2   
    25   21   29 1   
    26   23   26 1   
    27   23   27 1   
    28   23   28 1   
    29   29   30 1   
    30   29   37 1   
    31   30   31 1   
    32   30   33 1   
    33   30   38 1   
    34   31   32 2   
    35   31   41 1   
    36   33   34 1   
    37   33   39 1   
    38   33   40 1   
    39   34   35 1   
    40   34   36 1   
    41   41   42 1   
    42   41   45 1   
    43   42   43 1   
    44   42   46 1   
    45   42   47 1   
    46   43   44 2   
    47   43   48 1   
    48   48   49 1   
    49   48   56 1   
    50   49   50 1   
    51   49   52 1   
    52   49   57 1   
    53   50   51 2   
    54   50   62 1   
    55   52   53 1   
    56   52   58 1   
    57   52   59 1   
    58   53   54 1   
    59   53   55 2   
    60   54   60 1   
    61   54   61 1   
    62   62   63 1   
    63   62   66 1   
    64   63   64 1   
    65   63   67 1   
    66   63   68 1   
    67   64   65 2   
    68   64   69 1   
    69   69   70 1   
    70   69   76 1   
    71   70   71 1   
    72   70   73 1   
    73   70   77 1   
    74   71   72 2   
    75   71   83 1   
    76   73   74 1   
    77   73   75 1   
    78   73   78 1   
    79   74   80 1   
    80   74   81 1   
    81   74   82 1   
    82   75   79 1   
    83   83   84 1   
    84   83   91 1   
    85   84   85 1   
    86   84   87 1   
    87   84   92 1   
    88   85   86 2   
    89   85  102 1   
    90   87   88 1   
    91   87   89 1   
    92   87   93 1   
    93   88   90 1   
    94   88   94 1   
    95   88   95 1   
    96   89   96 1   
    97   89   97 1   
    98   89   98 1   
    99   90   99 1   
   100   90  100 1   
   101   90  101 1   
   102  102  103 1   
   103  102  110 1   
   104  103  104 1   
   105  103  106 1   
   106  103  111 1   
   107  104  105 2   
   108  104  114 1   
   109  106  107 1   
   110  106  112 1   
   111  106  113 1   
   112  107  108 1   
   113  107  109 1   
   114  114  115 1   
   115  114  125 1   
   116  115  116 1   
   117  115  118 1   
   118  115  126 1   
   119  116  117 2   
   120  116  134 1   
   121  118  119 1   
   122  118  127 1   
   123  118  128 1   
   124  119  120 ar  
   125  119  121 ar  
   126  120  122 ar  
   127  120  129 1   
   128  121  123 ar  
   129  121  130 1   
   130  122  124 ar  
   131  122  131 1   
   132  123  124 ar  
   133  123  132 1   
   134  124  133 1   
   135  134  135 1   
   136  134  140 1   
   137  135  136 1   
   138  135  138 1   
   139  135  141 1   
   140  136  137 2   
   141  136  148 1   
   142  138  139 1   
   143  138  142 1   
   144  138  143 1   
   145  139  140 1   
   146  139  144 1   
   147  139  145 1   
   148  140  146 1   
   149  140  147 1   
   150  148  149 1   
   151  148  157 1   
   152  149  150 1   
   153  149  152 1   
   154  149  158 1   
   155  150  151 2   
   156  150  163 1   
   157  152  153 1   
   158  152  159 1   
   159  152  160 1   
   160  153  154 1   
   161  153  161 1   
   162  153  162 1   
   163  154  155 1   
   164  154  156 1   
   165  163  164 1   
   166  163  168 1   
   167  164  165 1   
   168  164  166 1   
   169  164  167 1   
   170  170  171 1   
   171  170  172 1   
   172  173  174 1   
   173  173  175 1   
   174  176  177 1   
   175  176  178 1   
   176  179  180 1   
   177  179  181 1   
   178  182  183 1   
   179  182  184 1   
@<TRIPOS>SUBSTRUCTURE
     1 MOL         1 TEMP              0 ****  ****    0 ROOT
