@<TRIPOS>MOLECULE
MOL
  185   180     1     0     0
SMALL
resp


@<TRIPOS>ATOM
      1 C1          4.9420   -0.6430    5.9120 c3        1 MOL     -0.500327
      2 C2          3.9200   -0.3030    4.7990 c         1 MOL      0.796477
      3 O1          2.9150    0.2580    5.0400 o         1 MOL     -0.611892
      4 H1          4.8410   -1.6930    6.1890 hc        1 MOL      0.120124
      5 H2          5.9530   -0.4600    5.5460 hc        1 MOL      0.120124
      6 H3          4.7520   -0.0180    6.7840 hc        1 MOL      0.120124
      7 N1          4.2050   -0.8500    3.6160 n         1 MOL     -0.539641
      8 C3          3.5390   -0.5380    2.3490 c3        1 MOL      0.088397
      9 C4          2.9810   -1.7320    1.4970 c         1 MOL      0.447897
     10 O2          1.8090   -1.6630    1.0180 o         1 MOL     -0.659069
     11 C5          4.5820    0.2580    1.5890 c3        1 MOL     -0.111031
     12 C6          5.9730   -0.4600    1.4650 c         1 MOL      0.622469
     13 O3          6.9490    0.2810    1.6020 o         1 MOL     -0.652069
     14 O4          6.1320   -1.6940    1.4040 o         1 MOL     -0.652069
     15 H4          5.0950   -1.3240    3.5470 hn        1 MOL      0.274217
     16 H5          2.7040    0.1250    2.5380 h1        1 MOL      0.086414
     17 H6          4.7210    1.2210    2.0920 hc        1 MOL      0.026819
     18 H7          4.1340    0.4750    0.6120 hc        1 MOL      0.026819
     19 N2          3.7100   -2.8290    1.4260 n         1 MOL     -0.085286
     20 C7          3.2480   -4.1940    1.0410 c3        1 MOL     -0.037564
     21 C8          3.4850   -4.6090   -0.3750 c         1 MOL      0.626199
     22 O5          3.6570   -5.7660   -0.7380 o         1 MOL     -0.578850
     23 C9          3.8180   -5.2090    2.0940 c3        1 MOL     -0.001237
     24 C10         3.4840   -5.0050    3.5780 c3        1 MOL      0.143341
     25 C11         4.3550   -5.9150    4.4210 c3        1 MOL     -0.135180
     26 C12         4.0670   -7.3960    4.2360 c3        1 MOL      0.117541
     27 N3          4.8290   -8.1620    5.2470 n4        1 MOL     -0.334479
     28 H8          4.7020   -2.7080    1.5610 hn        1 MOL      0.157371
     29 H9          2.1590   -4.2210    1.1340 h1        1 MOL      0.075105
     30 H10         4.8990   -5.2960    1.9530 hc        1 MOL      0.005763
     31 H11         3.4120   -6.1980    1.8980 hc        1 MOL      0.005763
     32 H12         2.4640   -5.3270    3.7820 hc        1 MOL     -0.030752
     33 H13         3.5420   -3.9640    3.8830 hc        1 MOL     -0.030752
     34 H14         4.1500   -5.6320    5.4540 hc        1 MOL      0.032078
     35 H15         5.4030   -5.7160    4.1880 hc        1 MOL      0.032078
     36 H16         4.2430   -7.8170    3.2490 hx        1 MOL      0.074813
     37 H17         2.9740   -7.4580    4.3220 hx        1 MOL      0.074813
     38 H18         5.8200   -8.1970    5.0500 hn        1 MOL      0.317724
     39 H19         4.7810   -7.6290    6.1040 hn        1 MOL      0.317724
     40 H20         4.3980   -9.0360    5.5180 hn        1 MOL      0.317724
     41 N4          3.4790   -3.5700   -1.1930 n         1 MOL     -0.284538
     42 C13         3.7400   -3.5390   -2.6490 c3        1 MOL     -0.310852
     43 C14         4.3600   -2.2140   -2.9350 c         1 MOL      0.773509
     44 O6          4.0740   -1.1720   -2.3550 o         1 MOL     -0.527559
     45 C15         2.4080   -3.7580   -3.4720 c3        1 MOL     -0.198858
     46 C16         1.1620   -2.9590   -3.1110 c         1 MOL      0.649013
     47 O7          1.0530   -2.4520   -1.9810 o         1 MOL     -0.669456
     48 O8          0.3870   -2.8390   -4.0330 o         1 MOL     -0.669456
     49 H21         3.3910   -2.6350   -0.8140 hn        1 MOL      0.093975
     50 H22         4.4690   -4.2930   -2.9440 h1        1 MOL      0.132364
     51 H23         2.1140   -4.7950   -3.3080 hc        1 MOL      0.099361
     52 H24         2.5950   -3.6900   -4.5490 hc        1 MOL      0.099361
     53 N5          5.3050   -2.1800   -3.8660 n         1 MOL     -0.503232
     54 C17         6.0180   -0.9940   -4.1710 c3        1 MOL      0.016791
     55 C18         7.1610   -0.8110   -3.0890 c         1 MOL      0.602120
     56 O9          7.8570   -1.7850   -2.9120 o         1 MOL     -0.564411
     57 H25         5.6900   -3.0170   -4.2820 hn        1 MOL      0.318812
     58 H26         5.3320   -0.1560   -4.2430 h1        1 MOL      0.039033
     59 H27         6.5320   -1.1010   -5.1250 h1        1 MOL      0.039033
     60 N6          7.5060    0.3630   -2.5300 n         1 MOL     -0.523336
     61 C19         6.7810    1.6630   -2.8880 c3        1 MOL      0.019052
     62 C20         6.9670    2.5390   -1.6260 c         1 MOL      0.640019
     63 O10         8.0480    2.9190   -1.2270 o         1 MOL     -0.548322
     64 C21         7.5760    2.1920   -4.0210 c3        1 MOL     -0.300688
     65 C22         6.9960    3.5740   -4.4190 c         1 MOL      0.660477
     66 N7          7.4890    4.1400   -5.4660 n         1 MOL     -0.775828
     67 O11         6.0930    4.1340   -3.8340 o         1 MOL     -0.548186
     68 H28         8.3180    0.3830   -1.9270 hn        1 MOL      0.354966
     69 H29         5.7420    1.4450   -3.1560 h1        1 MOL      0.137843
     70 H30         7.5240    1.5830   -4.9280 hc        1 MOL      0.099148
     71 H31         8.6080    2.2770   -3.6810 hc        1 MOL      0.099148
     72 H32         8.2750    3.7030   -5.9310 hn        1 MOL      0.367185
     73 H33         7.0590    5.0170   -5.6850 hn        1 MOL      0.367185
     74 N8          5.8930    2.9270   -0.9660 n         1 MOL     -0.457721
     75 C23         4.4800    2.6830   -1.2170 c3        1 MOL      0.181111
     76 C24         3.5440    3.2270   -0.1170 c         1 MOL      0.586550
     77 O12         3.9340    4.0230    0.7630 o         1 MOL     -0.519946
     78 H34         5.9830    3.5850   -0.1960 hn        1 MOL      0.275432
     79 H35         4.2680    1.6300   -1.3830 h1        1 MOL     -0.042145
     80 H36         4.3200    3.0990   -2.2140 h1        1 MOL     -0.042145
     81 N9          2.2540    2.9870   -0.2760 n         1 MOL     -0.641000
     82 C25         1.1990    3.5260    0.6080 c3        1 MOL      0.356143
     83 C26        -0.1740    2.7970    0.6230 c         1 MOL      0.408591
     84 O13        -0.3470    1.6990    0.0850 o         1 MOL     -0.524896
     85 C27         0.9500    4.9380    0.1400 c3        1 MOL     -0.236489
     86 C28         0.3020    5.9150    1.0940 ca        1 MOL     -0.009380
     87 C29        -0.8930    6.4720    0.8710 ca        1 MOL     -0.058721
     88 C30         0.9390    6.2250    2.3170 ca        1 MOL     -0.058721
     89 C31        -1.4290    7.4110    1.7640 ca        1 MOL     -0.323409
     90 C32         0.3860    7.0250    3.3030 ca        1 MOL     -0.323409
     91 C33        -0.8430    7.6680    2.9920 ca        1 MOL      0.425015
     92 O14        -1.4120    8.5380    3.8520 oh        1 MOL     -0.564473
     93 H37         2.0230    2.3470   -1.0140 hn        1 MOL      0.285810
     94 H38         1.4940    3.4020    1.6510 h1        1 MOL      0.026458
     95 H39         0.3850    4.9120   -0.7910 hc        1 MOL      0.098928
     96 H40         1.9200    5.3840   -0.0840 hc        1 MOL      0.098928
     97 H41        -1.5170    6.1960    0.0300 ha        1 MOL      0.104179
     98 H42         1.8840    5.7200    2.4910 ha        1 MOL      0.104179
     99 H43        -2.2950    7.9920    1.4790 ha        1 MOL      0.153616
    100 H44         0.9590    7.1770    4.2100 ha        1 MOL      0.153616
    101 H45        -1.0270    8.6600    4.7170 ho        1 MOL      0.412386
    102 N10        -1.1710    3.3710    1.3100 n         1 MOL     -0.196801
    103 C34        -2.5440    2.7560    1.5510 c3        1 MOL     -0.502032
    104 C35        -3.6030    3.1380    0.3910 c         1 MOL      0.686390
    105 O15        -3.4130    4.1150   -0.3790 o         1 MOL     -0.537918
    106 C36        -3.1490    3.1400    2.8840 c3        1 MOL      0.213605
    107 C37        -2.7180    2.2730    4.0280 c3        1 MOL      0.024050
    108 C38        -2.8670    4.6420    3.2380 c3        1 MOL     -0.034214
    109 C39        -3.4140    2.2660    5.4110 c3        1 MOL     -0.265663
    110 H46        -0.8320    4.0830    1.9440 hn        1 MOL      0.166702
    111 H47        -2.3660    1.6840    1.4590 h1        1 MOL      0.209966
    112 H48        -4.2270    2.9730    2.8690 hc        1 MOL     -0.026063
    113 H49        -1.6600    2.3850    4.2360 hc        1 MOL      0.010298
    114 H50        -2.6910    1.2320    3.6860 hc        1 MOL      0.010298
    115 H51        -1.7920    4.7820    3.3810 hc        1 MOL      0.021550
    116 H52        -3.2070    5.2770    2.4230 hc        1 MOL      0.021550
    117 H53        -3.3790    4.9760    4.1320 hc        1 MOL      0.021550
    118 H54        -3.1100    1.3450    5.9040 hc        1 MOL      0.071993
    119 H55        -3.2590    3.2140    5.9070 hc        1 MOL      0.071993
    120 H56        -4.4820    2.1660    5.1970 hc        1 MOL      0.071993
    121 N11        -4.6430    2.3680    0.1630 n         1 MOL     -0.324655
    122 C40        -5.7140    2.6150   -0.8710 c3        1 MOL     -0.192221
    123 C41        -5.9840    1.3230   -1.6030 c         1 MOL      0.518346
    124 O16        -6.0510    0.3030   -0.8940 o         1 MOL     -0.383316
    125 C42        -6.9250    3.3250   -0.1440 c3        1 MOL      0.108173
    126 O17        -7.3110    2.6530    1.0300 oh        1 MOL     -0.571564
    127 H57        -4.8590    1.5470    0.7150 hn        1 MOL      0.229653
    128 H58        -5.3920    3.3370   -1.6220 h1        1 MOL      0.086385
    129 H59        -7.7870    3.3440   -0.8140 h1        1 MOL      0.051777
    130 H60        -6.6850    4.3630    0.0610 h1        1 MOL      0.051777
    131 H61        -8.0310    3.1680    1.4090 ho        1 MOL      0.402559
    132 N12        -6.2070    1.4430   -2.8870 n         1 MOL     -0.431604
    133 C43        -6.5420    0.4320   -3.8530 c3        1 MOL     -0.091461
    134 C44        -7.7410   -0.4940   -3.4330 c         1 MOL      0.484540
    135 O18        -8.0250   -1.4750   -4.1870 o         1 MOL     -0.458955
    136 C45        -5.3340   -0.3860   -4.2460 c3        1 MOL     -0.010163
    137 H62        -6.0240    2.3430   -3.2970 hn        1 MOL      0.342004
    138 H63        -6.8180    0.9750   -4.7540 h1        1 MOL      0.101624
    139 H64        -5.5390   -1.2780   -4.8370 hc        1 MOL      0.038395
    140 H65        -4.6020    0.2220   -4.7780 hc        1 MOL      0.038395
    141 H66        -4.9220   -0.7000   -3.2860 hc        1 MOL      0.038395
    142 N13        -8.4480   -0.1620   -2.3650 n         1 MOL     -0.517028
    143 C46        -9.4130   -1.1420   -1.7930 c3        1 MOL      0.276078
    144 C47        -8.6200   -2.4830   -1.3350 c         1 MOL      0.377331
    145 O19        -8.9450   -3.6010   -1.7400 o         1 MOL     -0.492254
    146 C48       -10.6410   -1.3460   -2.7170 c3        1 MOL     -0.383046
    147 H67        -8.2530    0.6540   -1.8050 hn        1 MOL      0.320368
    148 H68        -9.8120   -0.8210   -0.8270 h1        1 MOL     -0.006622
    149 H69       -11.1600   -0.3990   -2.9070 hc        1 MOL      0.111964
    150 H70       -10.3530   -1.8390   -3.6420 hc        1 MOL      0.111964
    151 H71       -11.3180   -2.0530   -2.2520 hc        1 MOL      0.111964
    152 N14        -7.5560   -2.2830   -0.6030 n         1 MOL     -0.217185
    153 C49        -6.6450   -3.3610   -0.1990 c3        1 MOL     -0.012407
    154 C50        -6.8720   -3.7870    1.2820 c         1 MOL      0.453376
    155 O20        -6.9170   -5.0170    1.5080 o         1 MOL     -0.516822
    156 C51        -5.1710   -2.8850   -0.4550 c3        1 MOL      0.246169
    157 C52        -4.0160   -3.8910   -0.1600 c3        1 MOL     -0.442198
    158 C53        -2.6300   -3.2220   -0.2100 c         1 MOL      0.902979
    159 O21        -2.0630   -2.8330   -1.2750 o         1 MOL     -0.802322
    160 O22        -2.0210   -3.0200    0.7970 o         1 MOL     -0.802322
    161 H72        -7.3660   -1.3380   -0.3180 hn        1 MOL      0.108078
    162 H73        -6.7680   -4.2020   -0.8800 h1        1 MOL      0.130280
    163 H74        -5.0290   -1.9940    0.1510 hc        1 MOL     -0.052828
    164 H75        -5.1420   -2.6020   -1.5130 hc        1 MOL     -0.052828
    165 H76        -4.0250   -4.7840   -0.7880 hc        1 MOL      0.102469
    166 H77        -4.1270   -4.1590    0.8790 hc        1 MOL      0.102469
    167 N15        -7.2830   -2.8650    2.1510 n         1 MOL     -0.324921
    168 C54        -7.8460   -3.3610    3.4430 c3        1 MOL     -0.260413
    169 H78        -7.3160   -4.2630    3.7460 h1        1 MOL      0.123266
    170 H79        -7.7270   -2.5960    4.2100 h1        1 MOL      0.123266
    171 H80        -8.9040   -3.5870    3.3150 h1        1 MOL      0.123266
    172 H81        -7.2870   -1.8860    1.8790 hn        1 MOL      0.254371
    173 Ca1        -0.2990   -1.1350   -0.3390 Ca        1 MOL      1.703107
    174 O23        -0.7930   -0.5190    2.4500 oh        1 MOL     -0.781085
    175 H82        -1.6850   -0.6090    2.7960 ho        1 MOL      0.392195
    176 H83        -0.3700    0.1000    3.0470 ho        1 MOL      0.392195
    177 O24        -2.9220   -0.3040   -0.2070 oh        1 MOL     -0.781085
    178 H84        -3.8040   -0.1760    0.1140 ho        1 MOL      0.392195
    179 H85        -2.9810   -0.1910   -1.1560 ho        1 MOL      0.392195
    180 O25         1.7420    0.2880   -1.3760 oh        1 MOL     -0.781085
    181 H86         1.6050    0.8960   -2.0960 ho        1 MOL      0.392195
    182 H87         2.5220   -0.1990   -1.6080 ho        1 MOL      0.392195
    183 O26        -1.3070    0.4830   -2.4810 oh        1 MOL     -0.781085
    184 H88        -0.7670    0.4410   -3.2720 ho        1 MOL      0.392195
    185 H89        -1.8160    1.2840   -2.5890 ho        1 MOL      0.392195
@<TRIPOS>BOND
     1    1    2 1   
     2    1    4 1   
     3    1    5 1   
     4    1    6 1   
     5    2    3 2   
     6    2    7 1   
     7    7    8 1   
     8    7   15 1   
     9    8    9 1   
    10    8   11 1   
    11    8   16 1   
    12    9   10 2   
    13    9   19 1   
    14   11   12 1   
    15   11   17 1   
    16   11   18 1   
    17   12   13 1   
    18   12   14 1   
    19   19   20 1   
    20   19   28 1   
    21   20   21 1   
    22   20   23 1   
    23   20   29 1   
    24   21   22 2   
    25   21   41 1   
    26   23   24 1   
    27   23   30 1   
    28   23   31 1   
    29   24   25 1   
    30   24   32 1   
    31   24   33 1   
    32   25   26 1   
    33   25   34 1   
    34   25   35 1   
    35   26   27 1   
    36   26   36 1   
    37   26   37 1   
    38   27   38 1   
    39   27   39 1   
    40   27   40 1   
    41   41   42 1   
    42   41   49 1   
    43   42   43 1   
    44   42   45 1   
    45   42   50 1   
    46   43   44 2   
    47   43   53 1   
    48   45   46 1   
    49   45   51 1   
    50   45   52 1   
    51   46   47 1   
    52   46   48 1   
    53   53   54 1   
    54   53   57 1   
    55   54   55 1   
    56   54   58 1   
    57   54   59 1   
    58   55   56 2   
    59   55   60 1   
    60   60   61 1   
    61   60   68 1   
    62   61   62 1   
    63   61   64 1   
    64   61   69 1   
    65   62   63 2   
    66   62   74 1   
    67   64   65 1   
    68   64   70 1   
    69   64   71 1   
    70   65   66 1   
    71   65   67 2   
    72   66   72 1   
    73   66   73 1   
    74   74   75 1   
    75   74   78 1   
    76   75   76 1   
    77   75   79 1   
    78   75   80 1   
    79   76   77 2   
    80   76   81 1   
    81   81   82 1   
    82   81   93 1   
    83   82   83 1   
    84   82   85 1   
    85   82   94 1   
    86   83   84 2   
    87   83  102 1   
    88   85   86 1   
    89   85   95 1   
    90   85   96 1   
    91   86   87 ar  
    92   86   88 ar  
    93   87   89 ar  
    94   87   97 1   
    95   88   90 ar  
    96   88   98 1   
    97   89   91 ar  
    98   89   99 1   
    99   90   91 ar  
   100   90  100 1   
   101   91   92 1   
   102   92  101 1   
   103  102  103 1   
   104  102  110 1   
   105  103  104 1   
   106  103  106 1   
   107  103  111 1   
   108  104  105 2   
   109  104  121 1   
   110  106  107 1   
   111  106  108 1   
   112  106  112 1   
   113  107  109 1   
   114  107  113 1   
   115  107  114 1   
   116  108  115 1   
   117  108  116 1   
   118  108  117 1   
   119  109  118 1   
   120  109  119 1   
   121  109  120 1   
   122  121  122 1   
   123  121  127 1   
   124  122  123 1   
   125  122  125 1   
   126  122  128 1   
   127  123  124 2   
   128  123  132 1   
   129  125  126 1   
   130  125  129 1   
   131  125  130 1   
   132  126  131 1   
   133  132  133 1   
   134  132  137 1   
   135  133  134 1   
   136  133  136 1   
   137  133  138 1   
   138  134  135 2   
   139  134  142 1   
   140  136  139 1   
   141  136  140 1   
   142  136  141 1   
   143  142  143 1   
   144  142  147 1   
   145  143  144 1   
   146  143  146 1   
   147  143  148 1   
   148  144  145 2   
   149  144  152 1   
   150  146  149 1   
   151  146  150 1   
   152  146  151 1   
   153  152  153 1   
   154  152  161 1   
   155  153  154 1   
   156  153  156 1   
   157  153  162 1   
   158  154  155 2   
   159  154  167 1   
   160  156  157 1   
   161  156  163 1   
   162  156  164 1   
   163  157  158 1   
   164  157  165 1   
   165  157  166 1   
   166  158  159 1   
   167  158  160 1   
   168  167  168 1   
   169  167  172 1   
   170  168  169 1   
   171  168  170 1   
   172  168  171 1   
   173  174  175 1   
   174  174  176 1   
   175  177  178 1   
   176  177  179 1   
   177  180  181 1   
   178  180  182 1   
   179  183  184 1   
   180  183  185 1   
@<TRIPOS>SUBSTRUCTURE
     1 MOL         1 TEMP              0 ****  ****    0 ROOT
