@<TRIPOS>MOLECULE
MOL
  192   187     1     0     0
SMALL
resp


@<TRIPOS>ATOM
      1 C1          5.9770    2.0260    5.6820 c3        1 MOL     -0.350592
      2 C2          5.3370    1.8870    4.2810 c         1 MOL      0.685619
      3 O1          4.7910    2.7680    3.6590 o         1 MOL     -0.553324
      4 H1          7.0100    2.3560    5.5780 hc        1 MOL      0.092969
      5 H2          5.4190    2.7580    6.2660 hc        1 MOL      0.092969
      6 H3          5.9530    1.0620    6.1900 hc        1 MOL      0.092969
      7 N1          5.4200    0.6600    3.7350 n         1 MOL     -0.459367
      8 C3          5.0350    0.2770    2.3210 c3        1 MOL      0.196263
      9 C4          3.5640    0.2810    1.9640 c         1 MOL     -0.223095
     10 O2          3.2710   -0.3880    0.9970 o         1 MOL     -0.050798
     11 C5          5.8500   -1.0220    2.0090 c3        1 MOL     -0.199800
     12 C6          5.4920   -2.0400    3.0440 c         1 MOL      0.704364
     13 O3          4.3770   -2.5730    2.8840 o         1 MOL     -0.671989
     14 O4          6.2850   -2.3090    4.0160 o         1 MOL     -0.671989
     15 H4          5.7430   -0.1360    4.2500 hn        1 MOL      0.259788
     16 H5          5.4080    1.0370    1.6380 h1        1 MOL      0.070741
     17 H6          6.9140   -0.7810    1.9920 hc        1 MOL      0.064022
     18 H7          5.6670   -1.3110    0.9700 hc        1 MOL      0.064022
     19 N2          2.7140    1.0060    2.7320 n         1 MOL     -0.056155
     20 C7          1.2330    0.8200    2.6480 c3        1 MOL     -0.028733
     21 C8          0.4750    2.0580    2.1740 c         1 MOL      0.534898
     22 O5          0.6840    3.1130    2.7790 o         1 MOL     -0.550368
     23 C9          0.6770    0.1410    3.9450 c3        1 MOL     -0.132259
     24 C10         1.4900   -1.0580    4.2580 c3        1 MOL      0.071070
     25 C11         1.0620   -1.8370    5.5100 c3        1 MOL     -0.016067
     26 C12         2.1390   -2.8420    6.0200 c3        1 MOL     -0.026244
     27 N3          2.7070   -3.7690    5.0330 n4        1 MOL     -0.265290
     28 H8          3.0260    1.7300    3.3580 hn        1 MOL      0.221034
     29 H9          1.1280    0.1500    1.7890 h1        1 MOL      0.218912
     30 H10        -0.3860   -0.0940    3.9540 hc        1 MOL      0.060150
     31 H11         0.7970    0.7760    4.8190 hc        1 MOL      0.060150
     32 H12         2.5030   -0.6760    4.4060 hc        1 MOL     -0.013657
     33 H13         1.5880   -1.7780    3.4400 hc        1 MOL     -0.013657
     34 H14         0.1670   -2.4310    5.3350 hc        1 MOL      0.041244
     35 H15         0.7920   -1.2610    6.3930 hc        1 MOL      0.041244
     36 H16         1.6580   -3.4970    6.7440 hx        1 MOL      0.071656
     37 H17         2.9730   -2.3010    6.4790 hx        1 MOL      0.071656
     38 H18         1.9030   -4.2160    4.6320 hn        1 MOL      0.292763
     39 H19         3.2430   -3.3070    4.3070 hn        1 MOL      0.292763
     40 H20         3.3650   -4.3840    5.5030 hn        1 MOL      0.292763
     41 N4         -0.4240    2.0770    1.1570 n         1 MOL     -0.347520
     42 C13        -0.9660    0.9310    0.3280 c3        1 MOL     -0.000928
     43 C14        -1.2590   -0.4500    1.0980 c         1 MOL      0.112521
     44 O6         -0.5540   -1.4870    0.8620 o         1 MOL     -0.496078
     45 C15        -0.1630    0.6040   -0.9240 c3        1 MOL     -0.251921
     46 C16        -0.0230    1.8510   -1.8520 c         1 MOL      0.724330
     47 O7          0.7610    1.7160   -2.8380 o         1 MOL     -0.704855
     48 O8         -0.6740    2.8250   -1.5270 o         1 MOL     -0.704855
     49 H21        -0.8540    2.9550    0.8880 hn        1 MOL      0.178773
     50 H22        -1.9740    1.1690   -0.0260 h1        1 MOL      0.085883
     51 H23        -0.6130   -0.1420   -1.5910 hc        1 MOL      0.105512
     52 H24         0.8630    0.3660   -0.6390 hc        1 MOL      0.105512
     53 N5         -2.1960   -0.4760    2.0660 n         1 MOL      0.021543
     54 C17        -3.3240    0.5090    2.3350 c3        1 MOL     -0.457739
     55 C18        -4.2220    0.2510    3.5670 c         1 MOL      0.761154
     56 O9         -3.8490   -0.5380    4.4060 o         1 MOL     -0.599519
     57 H25        -2.3300   -1.3520    2.5510 hn        1 MOL      0.190668
     58 H26        -4.0170    0.2840    1.5300 h1        1 MOL      0.179274
     59 H27        -2.9440    1.5340    2.2340 h1        1 MOL      0.179274
     60 N6         -5.2630    1.0430    3.8170 n         1 MOL     -0.568841
     61 C19        -5.8680    2.0950    2.9830 c3        1 MOL      0.068064
     62 C20        -6.7000    1.6990    1.8100 c         1 MOL      0.398286
     63 O10        -7.3990    0.6570    1.7910 o         1 MOL     -0.486194
     64 C21        -6.7530    2.9340    3.9360 c3        1 MOL     -0.062807
     65 C22        -7.0480    4.3480    3.4260 c         1 MOL      0.625639
     66 O11        -7.9020    5.0170    4.1170 o         1 MOL     -0.667406
     67 O12        -6.4660    4.8250    2.4350 o         1 MOL     -0.667406
     68 H28        -5.6700    0.9840    4.7360 hn        1 MOL      0.321941
     69 H29        -5.0480    2.7600    2.6870 h1        1 MOL      0.017502
     70 H30        -6.2340    3.0020    4.8940 hc        1 MOL      0.040453
     71 H31        -7.6780    2.4180    4.1920 hc        1 MOL      0.040453
     72 N7         -6.6650    2.4940    0.7060 n         1 MOL     -0.122103
     73 C23        -7.5990    2.4310   -0.4740 c3        1 MOL     -0.204410
     74 C24        -7.4850    1.0190   -1.0700 c         1 MOL      0.512189
     75 O13        -8.5240    0.4640   -1.4420 o         1 MOL     -0.518972
     76 H32        -6.0230    3.2760    0.6940 hn        1 MOL      0.147389
     77 H33        -7.4500    3.2270   -1.2110 h1        1 MOL      0.122126
     78 H34        -8.6090    2.4980   -0.0600 h1        1 MOL      0.122126
     79 N8         -6.2220    0.6380   -1.2250 n         1 MOL     -0.347301
     80 C25        -5.9510   -0.6110   -1.9130 c3        1 MOL     -0.045777
     81 C26        -4.8570   -1.3720   -1.2280 c         1 MOL      0.407195
     82 O14        -3.8360   -0.8010   -0.8620 o         1 MOL     -0.442061
     83 C27        -5.4950   -0.4410   -3.3750 c3        1 MOL      0.455801
     84 C28        -6.4440    0.2990   -4.2560 c3        1 MOL     -0.356989
     85 O15        -5.4220   -1.6010   -4.1230 oh        1 MOL     -0.654549
     86 H35        -5.4510    1.1920   -0.8910 hn        1 MOL      0.185887
     87 H36        -6.8520   -1.2230   -1.9030 h1        1 MOL      0.104111
     88 H37        -4.4800   -0.0430   -3.3890 h1        1 MOL     -0.035471
     89 H38        -4.7140   -1.5020   -4.7620 ho        1 MOL      0.409700
     90 H39        -6.5190    1.3380   -3.9630 hc        1 MOL      0.086995
     91 H40        -6.0220    0.2850   -5.2610 hc        1 MOL      0.086995
     92 H41        -7.4370   -0.1370   -4.2030 hc        1 MOL      0.086995
     93 N9         -5.1070   -2.6250   -0.8680 n         1 MOL     -0.302008
     94 C29        -4.2520   -3.4320    0.0730 c3        1 MOL     -0.038506
     95 C30        -2.9340   -4.0540   -0.5740 c         1 MOL      0.141732
     96 O16        -2.2930   -4.9090   -0.0400 o         1 MOL     -0.438672
     97 C31        -5.1190   -4.4640    0.8930 c3        1 MOL      0.069892
     98 C32        -5.8840   -5.4870    0.0600 c3        1 MOL      0.077225
     99 C33        -6.1530   -3.7160    1.7660 c3        1 MOL     -0.227583
    100 C34        -5.1220   -6.2990   -1.0200 c3        1 MOL     -0.111529
    101 H42        -5.9360   -3.1120   -1.1770 hn        1 MOL      0.309703
    102 H43        -3.9300   -2.6860    0.7900 h1        1 MOL      0.185090
    103 H44        -4.3710   -4.9920    1.5020 hc        1 MOL      0.047210
    104 H45        -6.6370   -4.8930   -0.4680 hc        1 MOL     -0.009463
    105 H46        -6.2280   -6.2380    0.7660 hc        1 MOL     -0.009463
    106 H47        -6.7260   -3.0270    1.1550 hc        1 MOL      0.050206
    107 H48        -6.8330   -4.4540    2.1860 hc        1 MOL      0.050206
    108 H49        -5.7050   -3.0330    2.4880 hc        1 MOL      0.050206
    109 H50        -4.2360   -6.7360   -0.5570 hc        1 MOL      0.031129
    110 H51        -5.7850   -7.0810   -1.3940 hc        1 MOL      0.031129
    111 H52        -4.8800   -5.6770   -1.8740 hc        1 MOL      0.031129
    112 N10        -2.4940   -3.5740   -1.7980 n         1 MOL      0.123658
    113 C35        -1.4660   -4.0830   -2.7160 c3        1 MOL      0.042897
    114 C36        -0.0620   -3.9740   -2.1560 c         1 MOL      0.217460
    115 O17         0.8370   -4.7160   -2.6180 o         1 MOL     -0.557220
    116 C37        -1.6220   -3.3280   -4.0800 c3        1 MOL      0.139585
    117 C38        -1.4720   -1.7710   -3.9510 c3        1 MOL     -0.173167
    118 O18        -2.8420   -3.5740   -4.7390 oh        1 MOL     -0.624378
    119 H53        -3.0170   -2.7630   -2.0940 hn        1 MOL     -0.081707
    120 H54        -1.7250   -5.1340   -2.8570 h1        1 MOL      0.090920
    121 H55        -0.8110   -3.6290   -4.7570 h1        1 MOL      0.081476
    122 H56        -2.8980   -3.1380   -5.5920 ho        1 MOL      0.407077
    123 H57        -2.3740   -1.3420   -3.5110 hc        1 MOL      0.056575
    124 H58        -0.6700   -1.5930   -3.2330 hc        1 MOL      0.056575
    125 H59        -1.3370   -1.1830   -4.8610 hc        1 MOL      0.056575
    126 N11         0.2120   -3.0420   -1.2680 n         1 MOL      0.036810
    127 C39         1.5960   -2.5870   -0.8890 c3        1 MOL      0.079187
    128 C40         2.3930   -2.0380   -2.1720 c         1 MOL      0.479893
    129 O19         1.9850   -2.2380   -3.2890 o         1 MOL     -0.475444
    130 C41         2.3160   -3.6160    0.0180 c3        1 MOL      0.190968
    131 C42         1.5020   -4.1110    1.2240 c3        1 MOL     -0.014895
    132 O20         3.6160   -3.2120    0.3830 oh        1 MOL     -0.508444
    133 H60        -0.6170   -2.6000   -0.9160 hn        1 MOL      0.222477
    134 H61         1.4720   -1.7200   -0.2450 h1        1 MOL     -0.050975
    135 H62         2.4150   -4.5460   -0.5520 h1        1 MOL     -0.010500
    136 H63         3.5850   -2.7620    1.2220 ho        1 MOL      0.259275
    137 H64         2.0510   -4.8240    1.8520 hc        1 MOL     -0.008782
    138 H65         1.2570   -3.2540    1.8640 hc        1 MOL     -0.008782
    139 H66         0.5260   -4.5060    0.9390 hc        1 MOL     -0.008782
    140 N12         3.5030   -1.2870   -1.8350 n         1 MOL     -0.333794
    141 C43         4.5900   -0.8870   -2.7110 c3        1 MOL      0.044063
    142 C44         4.9480    0.5410   -2.7070 c         1 MOL      0.401309
    143 O21         5.8400    0.9100   -3.5050 o         1 MOL     -0.548405
    144 C45         5.8150   -1.8350   -2.4540 c3        1 MOL      0.025474
    145 C46         5.6180   -3.3660   -2.6730 c3        1 MOL     -0.097066
    146 C47         6.5720   -4.0850   -1.6660 c3        1 MOL     -0.094877
    147 C48         6.8700   -5.6020   -1.7940 c3        1 MOL      0.013696
    148 N13         5.5960   -6.3020   -1.7680 n4        1 MOL     -0.335963
    149 H67         3.5170   -1.0560   -0.8560 hn        1 MOL     -0.060543
    150 H68         4.3520   -1.1940   -3.7230 h1        1 MOL      0.080388
    151 H69         6.0060   -1.7640   -1.3820 hc        1 MOL      0.038139
    152 H70         6.6840   -1.4290   -2.9720 hc        1 MOL      0.038139
    153 H71         5.8710   -3.6260   -3.6970 hc        1 MOL      0.050175
    154 H72         4.5990   -3.6560   -2.4110 hc        1 MOL      0.050175
    155 H73         6.2620   -3.9890   -0.6190 hc        1 MOL      0.069758
    156 H74         7.5250   -3.5490   -1.5820 hc        1 MOL      0.069758
    157 H75         7.5740   -5.8840   -0.9970 hx        1 MOL      0.081677
    158 H76         7.4810   -5.7320   -2.6850 hx        1 MOL      0.081677
    159 H77         5.1270   -6.0830   -0.9000 hn        1 MOL      0.328420
    160 H78         4.9790   -5.9270   -2.4720 hn        1 MOL      0.328420
    161 H79         5.7160   -7.2990   -1.9120 hn        1 MOL      0.328420
    162 N14         4.3840    1.2740   -1.7200 n         1 MOL     -0.049767
    163 C49         4.6130    2.7760   -1.5280 c3        1 MOL     -0.492530
    164 C50         6.0990    3.0810   -1.2470 c         1 MOL      0.591471
    165 O22         6.7010    2.5390   -0.3050 o         1 MOL     -0.508760
    166 C51         3.6420    3.1990   -0.4000 c3        1 MOL      0.413857
    167 C52         3.7870    4.6580   -0.2170 c3        1 MOL     -0.705707
    168 C53         3.3650    5.3410   -1.5330 c         1 MOL      0.661900
    169 O23         4.2510    6.0380   -2.1530 o         1 MOL     -0.679104
    170 O24         2.1400    5.5240   -1.8810 o         1 MOL     -0.679104
    171 H80         3.6510    0.8450   -1.1680 hn        1 MOL      0.242339
    172 H81         4.2620    3.1600   -2.4850 h1        1 MOL      0.192323
    173 H82         3.9060    2.6070    0.4700 hc        1 MOL     -0.074169
    174 H83         2.6100    2.8980   -0.5930 hc        1 MOL     -0.074169
    175 H84         4.7950    4.9420    0.0710 hc        1 MOL      0.223992
    176 H85         3.2000    5.0010    0.6300 hc        1 MOL      0.223992
    177 N15         6.6170    4.0950   -1.9600 n         1 MOL     -0.344178
    178 C54         7.9620    4.6450   -1.7700 c3        1 MOL     -0.062520
    179 H86         8.6900    4.0010   -2.2630 h1        1 MOL      0.062685
    180 H87         8.0110    5.6450   -2.2010 h1        1 MOL      0.062685
    181 H88         8.1870    4.6960   -0.7040 h1        1 MOL      0.062685
    182 H89         6.0440    4.6540   -2.5770 hn        1 MOL      0.335959
    183 Ca1        -0.4500    5.4850   -1.8590 Ca        1 MOL      1.645854
    184 O25         0.4970    6.7000   -4.0420 oh        1 MOL     -0.854823
    185 H90         1.3930    6.9800   -4.2230 ho        1 MOL      0.424749
    186 H91        -0.0590    7.3180   -4.5160 ho        1 MOL      0.424749
    187 O26        -2.6270    5.2690   -3.4650 oh        1 MOL     -0.854823
    188 H92        -3.1990    6.0230   -3.5740 ho        1 MOL      0.424749
    189 H93        -3.2090    4.5140   -3.5080 ho        1 MOL      0.424749
    190 O27         0.3490    3.9940   -3.8890 oh        1 MOL     -0.854823
    191 H94         0.2990    3.0810   -3.6110 ho        1 MOL      0.424749
    192 H95         1.2230    4.0860   -4.2540 ho        1 MOL      0.424749
@<TRIPOS>BOND
     1    1    2 1   
     2    1    4 1   
     3    1    5 1   
     4    1    6 1   
     5    2    3 2   
     6    2    7 1   
     7    7    8 1   
     8    7   15 1   
     9    8    9 1   
    10    8   11 1   
    11    8   16 1   
    12    9   10 2   
    13    9   19 1   
    14   11   12 1   
    15   11   17 1   
    16   11   18 1   
    17   12   13 1   
    18   12   14 1   
    19   19   20 1   
    20   19   28 1   
    21   20   21 1   
    22   20   23 1   
    23   20   29 1   
    24   21   22 2   
    25   21   41 1   
    26   23   24 1   
    27   23   30 1   
    28   23   31 1   
    29   24   25 1   
    30   24   32 1   
    31   24   33 1   
    32   25   26 1   
    33   25   34 1   
    34   25   35 1   
    35   26   27 1   
    36   26   36 1   
    37   26   37 1   
    38   27   38 1   
    39   27   39 1   
    40   27   40 1   
    41   41   42 1   
    42   41   49 1   
    43   42   43 1   
    44   42   45 1   
    45   42   50 1   
    46   43   44 2   
    47   43   53 1   
    48   45   46 1   
    49   45   51 1   
    50   45   52 1   
    51   46   47 1   
    52   46   48 1   
    53   53   54 1   
    54   53   57 1   
    55   54   55 1   
    56   54   58 1   
    57   54   59 1   
    58   55   56 2   
    59   55   60 1   
    60   60   61 1   
    61   60   68 1   
    62   61   62 1   
    63   61   64 1   
    64   61   69 1   
    65   62   63 2   
    66   62   72 1   
    67   64   65 1   
    68   64   70 1   
    69   64   71 1   
    70   65   66 1   
    71   65   67 1   
    72   72   73 1   
    73   72   76 1   
    74   73   74 1   
    75   73   77 1   
    76   73   78 1   
    77   74   75 2   
    78   74   79 1   
    79   79   80 1   
    80   79   86 1   
    81   80   81 1   
    82   80   83 1   
    83   80   87 1   
    84   81   82 2   
    85   81   93 1   
    86   83   84 1   
    87   83   85 1   
    88   83   88 1   
    89   84   90 1   
    90   84   91 1   
    91   84   92 1   
    92   85   89 1   
    93   93   94 1   
    94   93  101 1   
    95   94   95 1   
    96   94   97 1   
    97   94  102 1   
    98   95   96 2   
    99   95  112 1   
   100   97   98 1   
   101   97   99 1   
   102   97  103 1   
   103   98  100 1   
   104   98  104 1   
   105   98  105 1   
   106   99  106 1   
   107   99  107 1   
   108   99  108 1   
   109  100  109 1   
   110  100  110 1   
   111  100  111 1   
   112  112  113 1   
   113  112  119 1   
   114  113  114 1   
   115  113  116 1   
   116  113  120 1   
   117  114  115 2   
   118  114  126 1   
   119  116  117 1   
   120  116  118 1   
   121  116  121 1   
   122  117  123 1   
   123  117  124 1   
   124  117  125 1   
   125  118  122 1   
   126  126  127 1   
   127  126  133 1   
   128  127  128 1   
   129  127  130 1   
   130  127  134 1   
   131  128  129 2   
   132  128  140 1   
   133  130  131 1   
   134  130  132 1   
   135  130  135 1   
   136  131  137 1   
   137  131  138 1   
   138  131  139 1   
   139  132  136 1   
   140  140  141 1   
   141  140  149 1   
   142  141  142 1   
   143  141  144 1   
   144  141  150 1   
   145  142  143 2   
   146  142  162 1   
   147  144  145 1   
   148  144  151 1   
   149  144  152 1   
   150  145  146 1   
   151  145  153 1   
   152  145  154 1   
   153  146  147 1   
   154  146  155 1   
   155  146  156 1   
   156  147  148 1   
   157  147  157 1   
   158  147  158 1   
   159  148  159 1   
   160  148  160 1   
   161  148  161 1   
   162  162  163 1   
   163  162  171 1   
   164  163  164 1   
   165  163  166 1   
   166  163  172 1   
   167  164  165 2   
   168  164  177 1   
   169  166  167 1   
   170  166  173 1   
   171  166  174 1   
   172  167  168 1   
   173  167  175 1   
   174  167  176 1   
   175  168  169 1   
   176  168  170 1   
   177  177  178 1   
   178  177  182 1   
   179  178  179 1   
   180  178  180 1   
   181  178  181 1   
   182  184  185 1   
   183  184  186 1   
   184  187  188 1   
   185  187  189 1   
   186  190  191 1   
   187  190  192 1   
@<TRIPOS>SUBSTRUCTURE
     1 MOL         1 TEMP              0 ****  ****    0 ROOT
