@<TRIPOS>MOLECULE
MOL
  182   178     1     0     0
SMALL
resp


@<TRIPOS>ATOM
      1 C1          1.4920   -6.3300    4.6340 c3        1 MOL     -0.405899
      2 C2          1.3940   -5.3840    3.4020 c         1 MOL      0.799147
      3 O1          0.4560   -5.3980    2.5900 o         1 MOL     -0.678705
      4 H1          2.5290   -6.6360    4.7750 hc        1 MOL      0.117307
      5 H2          1.1460   -5.8050    5.5240 hc        1 MOL      0.117307
      6 H3          0.8720   -7.2110    4.4670 hc        1 MOL      0.117307
      7 N1          2.2210   -4.3820    3.4150 n         1 MOL     -0.666301
      8 C3          2.2960   -3.5130    2.2410 c3        1 MOL      0.028998
      9 C4          2.7630   -4.3120    1.0500 c         1 MOL      0.587430
     10 O2          3.6660   -5.0800    1.1830 o         1 MOL     -0.534696
     11 C5          3.3670   -2.4190    2.6120 c3        1 MOL     -0.081189
     12 C6          3.4540   -1.3680    1.5120 c         1 MOL      0.405323
     13 O3          3.9010   -0.1850    1.7560 o         1 MOL     -0.612379
     14 O4          3.0350   -1.5920    0.3430 o         1 MOL     -0.612379
     15 H4          2.8130   -4.1790    4.2100 hn        1 MOL      0.355599
     16 H5          1.3900   -2.9200    2.1340 h1        1 MOL      0.145499
     17 H6          4.3040   -2.9540    2.7810 hc        1 MOL      0.062276
     18 H7          3.0000   -1.9430    3.5230 hc        1 MOL      0.062276
     19 N2          2.0870   -4.2050   -0.1170 n         1 MOL     -0.359703
     20 C7          2.2990   -5.0280   -1.3520 c3        1 MOL     -0.061968
     21 C8          3.6020   -4.6310   -2.0170 c         1 MOL      0.512218
     22 O5          4.0280   -5.3830   -2.8740 o         1 MOL     -0.564671
     23 C9          1.1500   -4.8550   -2.3550 c3        1 MOL     -0.099334
     24 C10        -0.0680   -5.4560   -1.7180 c3        1 MOL      0.095308
     25 C11        -1.2130   -5.7190   -2.6640 c3        1 MOL     -0.050335
     26 C12        -2.1660   -6.6250   -1.9010 c3        1 MOL      0.030396
     27 N3         -1.5690   -7.9780   -1.6260 n4        1 MOL     -0.224092
     28 H8          1.4570   -3.4170   -0.1170 hn        1 MOL      0.222929
     29 H9          2.3500   -6.0620   -1.0100 h1        1 MOL      0.110846
     30 H10         1.3320   -5.2490   -3.3620 hc        1 MOL      0.048921
     31 H11         0.9180   -3.7940   -2.4320 hc        1 MOL      0.048921
     32 H12        -0.5460   -4.8540   -0.9390 hc        1 MOL     -0.010628
     33 H13         0.2280   -6.3790   -1.2140 hc        1 MOL     -0.010628
     34 H14        -0.8800   -6.2740   -3.5500 hc        1 MOL      0.048215
     35 H15        -1.7690   -4.8560   -3.0130 hc        1 MOL      0.048215
     36 H16        -3.0930   -6.7170   -2.4650 hx        1 MOL      0.074180
     37 H17        -2.3920   -6.2340   -0.9070 hx        1 MOL      0.074180
     38 H18        -0.8340   -8.2300   -2.2680 hn        1 MOL      0.234252
     39 H19        -1.1590   -7.9200   -0.6980 hn        1 MOL      0.234252
     40 H20        -2.1690   -8.7820   -1.5620 hn        1 MOL      0.234252
     41 N4          4.2020   -3.4230   -1.8390 n         1 MOL     -0.135186
     42 C13         5.5590   -3.1210   -2.4200 c3        1 MOL      0.001447
     43 C14         6.5560   -2.5780   -1.3570 c         1 MOL      0.400299
     44 O6          7.7320   -2.5040   -1.6450 o         1 MOL     -0.541707
     45 C15         5.4520   -2.1560   -3.6490 c3        1 MOL     -0.263945
     46 C16         4.8420   -0.7700   -3.3170 c         1 MOL      0.746995
     47 O7          4.6160   -0.4100   -2.1190 o         1 MOL     -0.694116
     48 O8          4.5410   -0.0780   -4.2780 o         1 MOL     -0.694116
     49 H21         3.8100   -2.8490   -1.1010 hn        1 MOL     -0.115582
     50 H22         5.9500   -4.0800   -2.7760 h1        1 MOL      0.122434
     51 H23         4.9240   -2.7330   -4.4130 hc        1 MOL      0.095858
     52 H24         6.4610   -2.1120   -4.0530 hc        1 MOL      0.095858
     53 N5          6.1830   -2.1860   -0.1560 n         1 MOL     -0.107130
     54 C17         7.0800   -1.7960    0.9310 c3        1 MOL     -0.330713
     55 C18         7.3290   -0.3200    1.0890 c         1 MOL      0.463074
     56 O9          7.9700    0.0890    2.0850 o         1 MOL     -0.537804
     57 H25         5.1860   -2.0700   -0.0350 hn        1 MOL      0.223003
     58 H26         8.0280   -2.2580    0.6480 h1        1 MOL      0.157956
     59 H27         6.7470   -2.0940    1.9220 h1        1 MOL      0.157956
     60 N6          6.8100    0.5290    0.2290 n         1 MOL      0.020713
     61 C19         7.0100    1.9780    0.1300 c3        1 MOL     -0.200140
     62 C20         5.7430    2.7970   -0.1800 c         1 MOL      0.772642
     63 O10         4.6890    2.2240   -0.5070 o         1 MOL     -0.759178
     64 C21         7.9670    2.1000   -1.0830 c3        1 MOL     -0.202956
     65 C22         9.4260    1.9070   -0.7280 c         1 MOL      0.617464
     66 N7          9.9720    0.7410   -1.1520 n         1 MOL     -0.756996
     67 O11        10.0750    2.7000   -0.0340 o         1 MOL     -0.533593
     68 H28         6.2020    0.1520   -0.4920 hn        1 MOL      0.151283
     69 H29         7.4820    2.4110    1.0100 h1        1 MOL      0.108414
     70 H30         7.8850    3.0910   -1.5390 hc        1 MOL      0.055608
     71 H31         7.5440    1.4630   -1.8600 hc        1 MOL      0.055608
     72 H32         9.5090    0.0080   -1.6790 hn        1 MOL      0.360470
     73 H33        10.9410    0.6570   -0.8920 hn        1 MOL      0.360470
     74 N8          5.8490    4.1650   -0.2040 n         1 MOL     -0.456681
     75 C23         4.8220    5.1440   -0.5820 c3        1 MOL     -0.059453
     76 C24         3.6420    5.1860    0.3400 c         1 MOL      0.611759
     77 O12         3.7440    5.2610    1.5710 o         1 MOL     -0.514644
     78 H34         6.7430    4.5710    0.0380 hn        1 MOL      0.319434
     79 H35         4.3600    4.8820   -1.5310 h1        1 MOL      0.078018
     80 H36         5.2700    6.1350   -0.6620 h1        1 MOL      0.078018
     81 N9          2.4100    5.0910   -0.2280 n         1 MOL     -0.514541
     82 C25         1.2880    4.7260    0.6700 c3        1 MOL     -0.118071
     83 C26         1.3340    3.3110    1.2130 c         1 MOL      0.296017
     84 O13         2.1520    2.5600    0.7980 o         1 MOL     -0.336269
     85 C27        -0.0580    4.8920   -0.0890 c3        1 MOL     -0.117196
     86 C28        -0.4010    6.3680   -0.4110 ca        1 MOL      0.026463
     87 C29        -0.4640    7.3420    0.6210 ca        1 MOL     -0.100979
     88 C30        -0.5770    6.8290   -1.7500 ca        1 MOL     -0.100979
     89 C31        -0.8400    8.6990    0.2710 ca        1 MOL     -0.327805
     90 C32        -0.8110    8.2060   -2.0440 ca        1 MOL     -0.327805
     91 C33        -0.9260    9.1330   -1.0160 ca        1 MOL      0.415899
     92 O14        -1.0860   10.4070   -1.2720 oh        1 MOL     -0.454996
     93 H37         2.3650    5.0270   -1.2360 hn        1 MOL      0.334693
     94 H38         1.1860    5.4210    1.4970 h1        1 MOL      0.146362
     95 H39        -0.8980    4.3890    0.3940 hc        1 MOL      0.047542
     96 H40        -0.0870    4.3370   -1.0310 hc        1 MOL      0.047542
     97 H41        -0.4680    7.1550    1.6850 ha        1 MOL      0.121821
     98 H42        -0.5010    6.1530   -2.5760 ha        1 MOL      0.121821
     99 H43        -1.0280    9.4700    1.0040 ha        1 MOL      0.165518
    100 H44        -0.8820    8.5870   -3.0490 ha        1 MOL      0.165518
    101 H45        -0.9490   10.9260   -0.4750 ho        1 MOL      0.347331
    102 N10         0.5250    2.9780    2.1990 n         1 MOL     -0.102673
    103 C34         0.1520    1.7180    2.8470 c3        1 MOL     -0.177221
    104 C35        -0.0760    0.5020    1.9070 c         1 MOL      0.268381
    105 O15         0.7460    0.1350    1.0390 o         1 MOL     -0.430659
    106 C36         1.3010    1.3090    3.7840 c3        1 MOL      0.338262
    107 C37         1.0160   -0.0060    4.6600 c3        1 MOL     -0.314712
    108 C38         1.6700    2.4680    4.7020 c3        1 MOL     -0.292558
    109 C39        -0.0630    0.0010    5.7310 c3        1 MOL     -0.238435
    110 H46         0.0920    3.7690    2.6400 hn        1 MOL      0.220612
    111 H47        -0.7470    1.8380    3.4510 h1        1 MOL      0.075388
    112 H48         2.2080    1.0730    3.2380 hc        1 MOL     -0.004707
    113 H49         1.9280   -0.3130    5.1670 hc        1 MOL      0.140998
    114 H50         0.7370   -0.8270    3.9980 hc        1 MOL      0.140998
    115 H51         2.0860    3.3090    4.1440 hc        1 MOL      0.077564
    116 H52         0.8850    3.0550    5.1690 hc        1 MOL      0.077564
    117 H53         2.3710    2.1150    5.4620 hc        1 MOL      0.077564
    118 H54         0.3580    0.4470    6.6310 hc        1 MOL      0.069274
    119 H55        -0.9130    0.5390    5.3160 hc        1 MOL      0.069274
    120 H56        -0.4730   -0.9940    5.9330 hc        1 MOL      0.069274
    121 N11        -1.2230   -0.1370    1.9760 n         1 MOL     -0.392071
    122 C40        -1.6280   -1.2880    1.0580 c3        1 MOL      0.049770
    123 C41        -3.1320   -1.3760    0.6280 c         1 MOL      0.528132
    124 O16        -3.5560   -2.2980   -0.0810 o         1 MOL     -0.510897
    125 C42        -1.2040   -2.5800    1.7600 c3        1 MOL     -0.052805
    126 O17        -0.4000   -3.3910    0.9980 oh        1 MOL     -0.483538
    127 H57        -1.8630    0.1650    2.6920 hn        1 MOL      0.334620
    128 H58        -1.0930   -1.1510    0.1170 h1        1 MOL      0.131462
    129 H59        -2.0670   -3.1910    2.0070 h1        1 MOL      0.068290
    130 H60        -0.5920   -2.3290    2.6180 h1        1 MOL      0.068290
    131 H61        -0.1410   -4.0710    1.6120 ho        1 MOL      0.422744
    132 N12        -3.9880   -0.4150    1.0270 n         1 MOL     -0.624528
    133 C43        -5.3570   -0.3390    0.4330 c3        1 MOL      0.349460
    134 C44        -5.3000    0.2580   -0.9370 c         1 MOL      0.661911
    135 O18        -4.2800    0.7270   -1.3300 o         1 MOL     -0.590261
    136 C45        -6.3300    0.3850    1.4030 c3        1 MOL     -0.306398
    137 H62        -3.7100    0.1600    1.8110 hn        1 MOL      0.287989
    138 H63        -5.7690   -1.3340    0.2600 h1        1 MOL      0.035654
    139 H64        -7.3060    0.4460    0.9140 hc        1 MOL      0.084796
    140 H65        -6.4230   -0.2610    2.2760 hc        1 MOL      0.084796
    141 H66        -5.9640    1.4000    1.5450 hc        1 MOL      0.084796
    142 N13        -6.3920    0.1710   -1.7570 n         1 MOL     -0.682993
    143 C46        -7.6840   -0.4680   -1.6600 c3        1 MOL      0.336218
    144 C47        -8.7850    0.4170   -2.2980 c         1 MOL      0.311547
    145 O19        -8.5290    1.2200   -3.1930 o         1 MOL     -0.516022
    146 C48        -7.5520   -1.7950   -2.3740 c3        1 MOL     -0.197131
    147 H67        -6.2100    0.5860   -2.6690 hn        1 MOL      0.338015
    148 H68        -7.9460   -0.7500   -0.6390 h1        1 MOL     -0.013087
    149 H69        -8.3600   -2.5040   -2.2230 hc        1 MOL      0.061021
    150 H70        -7.5690   -1.6880   -3.4620 hc        1 MOL      0.061021
    151 H71        -6.5840   -2.2230   -2.1110 hc        1 MOL      0.061021
    152 N14       -10.0220    0.3600   -1.8920 n         1 MOL     -0.260357
    153 C49       -10.6270   -0.3000   -0.7000 c3        1 MOL     -0.264850
    154 C50       -10.1960    0.4370    0.6070 c         1 MOL      0.455098
    155 O20        -9.9020   -0.0460    1.7150 o         1 MOL     -0.507375
    156 C51       -12.1760   -0.2790   -0.8690 c3        1 MOL      0.170372
    157 C52       -12.9960   -0.9820    0.2150 c3        1 MOL     -0.269543
    158 C53       -14.4380   -0.7800    0.1070 c         1 MOL      0.738204
    159 O21       -15.1170   -1.5750   -0.5410 o         1 MOL     -0.668093
    160 O22       -15.0310    0.1320    0.7820 o         1 MOL     -0.668093
    161 H72       -10.5810    1.0260   -2.4070 hn        1 MOL      0.265170
    162 H73       -10.2510   -1.3210   -0.7630 h1        1 MOL      0.151514
    163 H74       -12.4410   -0.6600   -1.8530 hc        1 MOL     -0.010133
    164 H75       -12.4360    0.7740   -0.8280 hc        1 MOL     -0.010133
    165 H76       -12.7480   -0.5520    1.1830 hc        1 MOL      0.062805
    166 H77       -12.6200   -2.0060    0.1950 hc        1 MOL      0.062805
    167 N15       -10.0910    1.7700    0.5000 n         1 MOL     -0.148185
    168 C54        -9.5770    2.6170    1.5620 c3        1 MOL     -0.421315
    169 H78       -10.2880    2.6370    2.3870 h1        1 MOL      0.152960
    170 H79        -8.6240    2.2210    1.9150 h1        1 MOL      0.152960
    171 H80        -9.4330    3.6290    1.1830 h1        1 MOL      0.152960
    172 H81       -10.3360    2.2190   -0.3740 hn        1 MOL      0.239114
    173 Ca1         2.5690    0.5290   -0.8750 Ca        1 MOL      1.696426
    174 O23         3.5690    2.1090   -3.1590 oh        1 MOL     -0.852606
    175 H82         3.7340    1.4100   -3.7960 ho        1 MOL      0.433020
    176 H83         4.3640    2.1260   -2.6290 ho        1 MOL      0.433020
    177 O24         0.4690    1.5160   -2.0890 oh        1 MOL     -0.852606
    178 H84        -0.3050    1.4910   -1.5290 ho        1 MOL      0.433020
    179 H85         0.3270    2.2550   -2.6780 ho        1 MOL      0.433020
    180 O25         1.3710   -1.2410   -2.2620 oh        1 MOL     -0.852606
    181 H86         1.6200   -1.3050   -3.1880 ho        1 MOL      0.433020
    182 H87         0.5440   -1.7030   -2.2070 ho        1 MOL      0.433020
@<TRIPOS>BOND
     1    1    2 1   
     2    1    4 1   
     3    1    5 1   
     4    1    6 1   
     5    2    3 2   
     6    2    7 1   
     7    7    8 1   
     8    7   15 1   
     9    8    9 1   
    10    8   11 1   
    11    8   16 1   
    12    9   10 2   
    13    9   19 1   
    14   11   12 1   
    15   11   17 1   
    16   11   18 1   
    17   12   13 1   
    18   12   14 1   
    19   19   20 1   
    20   19   28 1   
    21   20   21 1   
    22   20   23 1   
    23   20   29 1   
    24   21   22 2   
    25   21   41 1   
    26   23   24 1   
    27   23   30 1   
    28   23   31 1   
    29   24   25 1   
    30   24   32 1   
    31   24   33 1   
    32   25   26 1   
    33   25   34 1   
    34   25   35 1   
    35   26   27 1   
    36   26   36 1   
    37   26   37 1   
    38   27   38 1   
    39   27   39 1   
    40   27   40 1   
    41   41   42 1   
    42   41   49 1   
    43   42   43 1   
    44   42   45 1   
    45   42   50 1   
    46   43   44 2   
    47   43   53 1   
    48   45   46 1   
    49   45   51 1   
    50   45   52 1   
    51   46   47 1   
    52   46   48 1   
    53   53   54 1   
    54   53   57 1   
    55   54   55 1   
    56   54   58 1   
    57   54   59 1   
    58   55   56 2   
    59   55   60 1   
    60   60   61 1   
    61   60   68 1   
    62   61   62 1   
    63   61   64 1   
    64   61   69 1   
    65   62   63 2   
    66   62   74 1   
    67   64   65 1   
    68   64   70 1   
    69   64   71 1   
    70   65   66 1   
    71   65   67 2   
    72   66   72 1   
    73   66   73 1   
    74   74   75 1   
    75   74   78 1   
    76   75   76 1   
    77   75   79 1   
    78   75   80 1   
    79   76   77 2   
    80   76   81 1   
    81   81   82 1   
    82   81   93 1   
    83   82   83 1   
    84   82   85 1   
    85   82   94 1   
    86   83   84 2   
    87   83  102 1   
    88   85   86 1   
    89   85   95 1   
    90   85   96 1   
    91   86   87 ar  
    92   86   88 ar  
    93   87   89 ar  
    94   87   97 1   
    95   88   90 ar  
    96   88   98 1   
    97   89   91 ar  
    98   89   99 1   
    99   90   91 ar  
   100   90  100 1   
   101   91   92 1   
   102   92  101 1   
   103  102  103 1   
   104  102  110 1   
   105  103  104 1   
   106  103  106 1   
   107  103  111 1   
   108  104  105 2   
   109  104  121 1   
   110  106  107 1   
   111  106  108 1   
   112  106  112 1   
   113  107  109 1   
   114  107  113 1   
   115  107  114 1   
   116  108  115 1   
   117  108  116 1   
   118  108  117 1   
   119  109  118 1   
   120  109  119 1   
   121  109  120 1   
   122  121  122 1   
   123  121  127 1   
   124  122  123 1   
   125  122  125 1   
   126  122  128 1   
   127  123  124 2   
   128  123  132 1   
   129  125  126 1   
   130  125  129 1   
   131  125  130 1   
   132  126  131 1   
   133  132  133 1   
   134  132  137 1   
   135  133  134 1   
   136  133  136 1   
   137  133  138 1   
   138  134  135 2   
   139  134  142 1   
   140  136  139 1   
   141  136  140 1   
   142  136  141 1   
   143  142  143 1   
   144  142  147 1   
   145  143  144 1   
   146  143  146 1   
   147  143  148 1   
   148  144  145 2   
   149  144  152 1   
   150  146  149 1   
   151  146  150 1   
   152  146  151 1   
   153  152  153 1   
   154  152  161 1   
   155  153  154 1   
   156  153  156 1   
   157  153  162 1   
   158  154  155 2   
   159  154  167 1   
   160  156  157 1   
   161  156  163 1   
   162  156  164 1   
   163  157  158 1   
   164  157  165 1   
   165  157  166 1   
   166  158  159 1   
   167  158  160 1   
   168  167  168 1   
   169  167  172 1   
   170  168  169 1   
   171  168  170 1   
   172  168  171 1   
   173  174  175 1   
   174  174  176 1   
   175  177  178 1   
   176  177  179 1   
   177  180  181 1   
   178  180  182 1   
@<TRIPOS>SUBSTRUCTURE
     1 MOL         1 TEMP              0 ****  ****    0 ROOT
