@<TRIPOS>MOLECULE
MOL
  178   175     1     0     0
SMALL
resp


@<TRIPOS>ATOM
      1 C1        -10.0250    6.5330   -0.9610 c3        1 MOL     -0.265912
      2 C2         -9.6130    5.2290   -1.6110 c         1 MOL      0.611430
      3 O1         -9.3980    5.0990   -2.8020 o         1 MOL     -0.594526
      4 H1         -9.6850    6.5440    0.0740 hc        1 MOL      0.072192
      5 H2         -9.5740    7.3660   -1.5010 hc        1 MOL      0.072192
      6 H3        -11.1110    6.6260   -0.9880 hc        1 MOL      0.072192
      7 N1         -9.4260    4.1280   -0.8650 n         1 MOL     -0.355436
      8 C3         -9.5140    4.0980    0.5540 c3        1 MOL      0.185093
      9 C4        -10.2770    2.8840    1.0890 c         1 MOL      0.184169
     10 O2        -10.1720    1.7720    0.4630 o         1 MOL     -0.293089
     11 C5         -8.0800    4.2930    1.1140 c3        1 MOL     -0.258487
     12 C6         -7.1660    3.1750    0.6800 c         1 MOL      0.721848
     13 O3         -5.9510    3.3080    0.9300 o         1 MOL     -0.656929
     14 O4         -7.5590    2.1350    0.0670 o         1 MOL     -0.656929
     15 H4         -9.1400    3.3060   -1.3780 hn        1 MOL      0.205953
     16 H5        -10.1450    4.9420    0.8450 h1        1 MOL      0.009783
     17 H6         -8.0790    4.2100    2.2030 hc        1 MOL      0.069344
     18 H7         -7.6050    5.2650    0.9330 hc        1 MOL      0.069344
     19 N2        -11.0540    3.0650    2.1570 n         1 MOL     -0.401098
     20 C7        -12.1140    2.1030    2.5710 c3        1 MOL      0.264165
     21 C8        -11.6950    0.7420    3.0730 c         1 MOL      0.408294
     22 O5        -11.8680    0.3310    4.2170 o         1 MOL     -0.558771
     23 C9        -13.2890    2.0630    1.6170 c3        1 MOL     -0.284439
     24 H8        -11.0480    4.0370    2.4190 hn        1 MOL      0.290792
     25 H9        -12.4690    2.5750    3.4860 h1        1 MOL      0.012287
     26 H10       -13.1030    1.3530    0.8050 hc        1 MOL      0.083226
     27 H11       -14.0960    1.7360    2.2750 hc        1 MOL      0.083226
     28 H12       -13.6660    3.0010    1.2190 hc        1 MOL      0.083226
     29 N3        -11.1000   -0.0410    2.1810 n         1 MOL     -0.163051
     30 C10       -10.7220   -1.4930    2.3420 c3        1 MOL      0.163063
     31 C11        -9.1650   -1.5790    2.0650 c         1 MOL      0.425671
     32 O6         -8.4790   -0.5940    1.8190 o         1 MOL     -0.546057
     33 C12       -11.6120   -2.3500    1.3580 c3        1 MOL     -0.393305
     34 C13       -11.5580   -1.8360   -0.0990 c         1 MOL      0.786497
     35 O7        -12.5790   -1.8690   -0.8310 o         1 MOL     -0.684732
     36 O8        -10.4360   -1.5530   -0.4970 o         1 MOL     -0.684732
     37 H13       -11.0060    0.4020    1.2740 hn        1 MOL      0.037046
     38 H14       -10.8720   -1.9760    3.3120 h1        1 MOL      0.047153
     39 H15       -12.6230   -2.2880    1.7480 hc        1 MOL      0.084199
     40 H16       -11.2500   -3.3790    1.3470 hc        1 MOL      0.084199
     41 N4         -8.5640   -2.7880    2.1580 n         1 MOL     -0.326321
     42 C14        -7.1450   -3.1040    1.9360 c3        1 MOL     -0.322334
     43 C15        -6.6930   -2.7750    0.5630 c         1 MOL      0.880743
     44 O9         -7.4890   -2.3800   -0.3250 o         1 MOL     -0.670744
     45 H17        -9.2080   -3.5530    2.3020 hn        1 MOL      0.269726
     46 H18        -6.9790   -4.1770    1.9500 h1        1 MOL      0.147064
     47 H19        -6.5010   -2.5110    2.5840 h1        1 MOL      0.147064
     48 N5         -5.3880   -2.8920    0.4480 n         1 MOL     -0.691052
     49 C16        -4.5670   -2.6540   -0.7170 c3        1 MOL      0.221375
     50 C17        -3.3370   -3.5950   -0.6340 c         1 MOL      0.541183
     51 O10        -3.1880   -4.3290    0.3270 o         1 MOL     -0.528019
     52 C18        -4.0240   -1.1910   -0.6860 c3        1 MOL     -0.569778
     53 C19        -5.1280   -0.2110   -0.4260 c         1 MOL      0.765527
     54 N6         -5.2480    0.4080    0.7160 n         1 MOL     -0.700628
     55 O11        -5.9430    0.0910   -1.3620 o         1 MOL     -0.628464
     56 H20        -4.8390   -3.1670    1.2580 hn        1 MOL      0.333401
     57 H21        -5.0400   -2.8600   -1.6770 h1        1 MOL      0.033706
     58 H22        -3.4870   -0.9090   -1.5850 hc        1 MOL      0.196289
     59 H23        -3.2960   -1.1470    0.1180 hc        1 MOL      0.196289
     60 H24        -4.6810    0.2080    1.5320 hn        1 MOL      0.347863
     61 H25        -5.7970    1.2560    0.6810 hn        1 MOL      0.347863
     62 N7         -2.3880   -3.3320   -1.5480 n         1 MOL     -0.457328
     63 C20        -1.0540   -3.8730   -1.4700 c3        1 MOL     -0.038468
     64 C21        -0.1790   -3.5970   -2.7590 c         1 MOL      0.557529
     65 O12        -0.6260   -2.8590   -3.6600 o         1 MOL     -0.534481
     66 H26        -2.6620   -2.6940   -2.2930 hn        1 MOL      0.271986
     67 H27        -1.1210   -4.9520   -1.2910 h1        1 MOL      0.114150
     68 H28        -0.6100   -3.3260   -0.6480 h1        1 MOL      0.114150
     69 N8          1.0920   -4.0400   -2.7790 n         1 MOL     -0.491282
     70 C22         1.7830   -4.8860   -1.7800 c3        1 MOL     -0.023887
     71 C23         2.7620   -4.2100   -0.7830 c         1 MOL      0.520649
     72 O13         3.2580   -4.9010    0.0430 o         1 MOL     -0.522957
     73 C24         2.4990   -6.0530   -2.4410 c3        1 MOL      0.378951
     74 C25         1.7130   -7.2130   -2.9270 c3        1 MOL     -0.326723
     75 O14         3.2440   -5.6320   -3.5880 oh        1 MOL     -0.620396
     76 H29         1.7100   -3.7140   -3.4990 hn        1 MOL      0.337259
     77 H30         1.0070   -5.3550   -1.1710 h1        1 MOL      0.068883
     78 H31         3.1120   -6.4750   -1.6380 h1        1 MOL     -0.001696
     79 H32         3.7730   -6.3780   -3.8580 ho        1 MOL      0.397034
     80 H33         1.2230   -7.7480   -2.1040 hc        1 MOL      0.073397
     81 H34         1.0140   -6.9040   -3.7040 hc        1 MOL      0.073397
     82 H35         2.3170   -7.9300   -3.4820 hc        1 MOL      0.073397
     83 N9          3.0170   -2.8640   -0.8000 n         1 MOL     -0.551165
     84 C26         4.0900   -2.2800    0.0460 c3        1 MOL      0.270491
     85 C27         3.6370   -1.0460    0.7990 c         1 MOL      0.381088
     86 O15         2.5900   -0.4450    0.5120 o         1 MOL     -0.563084
     87 C28         5.3610   -2.0080   -0.8770 c3        1 MOL      0.120449
     88 C29         4.8830   -1.1160   -2.1290 c3        1 MOL      0.026308
     89 C30         6.1010   -3.3370   -1.2860 c3        1 MOL     -0.147458
     90 C31         5.9530   -0.8100   -3.1230 c3        1 MOL     -0.300617
     91 H36         2.5020   -2.2940   -1.4560 hn        1 MOL      0.275820
     92 H37         4.4660   -2.9830    0.7930 h1        1 MOL      0.065147
     93 H38         6.0570   -1.3630   -0.3630 hc        1 MOL      0.018584
     94 H39         4.5380   -0.1750   -1.7120 hc        1 MOL      0.030095
     95 H40         4.0080   -1.4990   -2.6560 hc        1 MOL      0.030095
     96 H41         6.1030   -4.1020   -0.4970 hc        1 MOL      0.024456
     97 H42         5.6310   -3.7550   -2.1810 hc        1 MOL      0.024456
     98 H43         7.1570   -3.1220   -1.4430 hc        1 MOL      0.024456
     99 H44         6.3210   -1.7380   -3.5780 hc        1 MOL      0.063542
    100 H45         5.4490   -0.2110   -3.8760 hc        1 MOL      0.063542
    101 H46         6.7520   -0.2950   -2.5910 hc        1 MOL      0.063542
    102 N10         4.4370   -0.4760    1.7060 n         1 MOL     -0.382549
    103 C32         5.6760   -0.9850    2.3220 c3        1 MOL      0.092347
    104 C33         6.8990   -0.0360    2.1390 c         1 MOL      0.182790
    105 O16         6.8250    1.1290    2.4500 o         1 MOL     -0.346955
    106 C34         5.5060   -1.1870    3.9040 c3        1 MOL     -0.266472
    107 C35         6.6950   -1.7760    4.7630 c         1 MOL      0.770195
    108 O17         7.5600   -1.0080    5.2970 o         1 MOL     -0.739821
    109 O18         6.6910   -3.0020    5.0260 o         1 MOL     -0.739821
    110 H47         4.0360    0.3910    2.0440 hn        1 MOL      0.339393
    111 H48         5.8850   -1.9410    1.8350 h1        1 MOL      0.004512
    112 H49         4.6550   -1.8100    4.1650 hc        1 MOL      0.061516
    113 H50         5.2780   -0.1750    4.2540 hc        1 MOL      0.061516
    114 N11         7.9480   -0.5320    1.4480 n         1 MOL     -0.414786
    115 C36         9.2830    0.0710    1.4480 c3        1 MOL      0.390507
    116 C37         9.8560   -0.2690    0.0550 c         1 MOL     -0.000224
    117 O19         9.6630   -1.4070   -0.3620 o         1 MOL     -0.452454
    118 C38        10.0960   -0.4630    2.6480 c3        1 MOL     -0.226521
    119 C39        11.5590   -0.0070    2.5360 ca        1 MOL      0.117620
    120 C40        12.5800   -0.9180    2.1140 ca        1 MOL     -0.181281
    121 C41        11.9870    1.2910    2.9790 ca        1 MOL     -0.181281
    122 C42        13.8950   -0.5740    2.0840 ca        1 MOL     -0.103493
    123 C43        13.3420    1.6550    2.9530 ca        1 MOL     -0.103493
    124 C44        14.3280    0.7300    2.4480 ca        1 MOL     -0.139087
    125 H51         7.7880   -1.4270    1.0010 hn        1 MOL      0.298592
    126 H52         9.1860    1.1380    1.6700 h1        1 MOL      0.029415
    127 H53        10.0150   -1.5460    2.6250 hc        1 MOL      0.110712
    128 H54         9.8060   -0.0870    3.6310 hc        1 MOL      0.110712
    129 H55        12.2500   -1.9040    1.8110 ha        1 MOL      0.138935
    130 H56        11.3330    2.0880    3.2950 ha        1 MOL      0.138935
    131 H57        14.6350   -1.3390    1.9060 ha        1 MOL      0.092593
    132 H58        13.6070    2.6700    3.2140 ha        1 MOL      0.092593
    133 H59        15.3910    0.8900    2.3980 ha        1 MOL      0.089824
    134 N12        10.6470    0.6670   -0.5400 n         1 MOL      0.281562
    135 C45        10.8780    2.1020   -0.2100 c3        1 MOL     -0.098665
    136 C46         9.7250    3.0770   -0.5360 c         1 MOL      0.417881
    137 O20         9.6360    4.2080    0.0420 o         1 MOL     -0.533564
    138 C47        12.1470    2.4570   -0.9760 c3        1 MOL      0.007689
    139 C48        12.3890    1.4220   -2.0490 c3        1 MOL     -0.168417
    140 C49        11.2940    0.3620   -1.7550 c3        1 MOL     -0.064495
    141 H60        11.1680    2.3500    0.8120 h1        1 MOL      0.069000
    142 H61        12.0660    3.4540   -1.4110 hc        1 MOL      0.017978
    143 H62        13.0400    2.3860   -0.3500 hc        1 MOL      0.017978
    144 H63        12.2150    1.8730   -3.0230 hc        1 MOL      0.057574
    145 H64        13.3700    0.9620   -1.8880 hc        1 MOL      0.057574
    146 H65        10.5860    0.2930   -2.5800 h1        1 MOL      0.029976
    147 H66        11.7740   -0.5920   -1.5520 h1        1 MOL      0.029976
    148 N13         8.8550    2.6620   -1.4470 n         1 MOL     -0.264945
    149 C50         7.6690    3.4920   -1.8260 c3        1 MOL      0.157224
    150 C51         7.8280    4.0460   -3.2220 c         1 MOL      0.381200
    151 O21         8.2820    3.3580   -4.1160 o         1 MOL     -0.591578
    152 C52         6.3180    2.7540   -1.6460 c3        1 MOL     -0.093706
    153 C53         5.9690    2.3480   -0.1810 c3        1 MOL     -0.039035
    154 C54         5.1940    3.4370    0.5610 c         1 MOL      0.663926
    155 O22         3.9220    3.3670    0.6640 o         1 MOL     -0.701077
    156 O23         5.8330    4.3720    1.1220 o         1 MOL     -0.701077
    157 H67         9.1470    1.8960   -2.0460 hn        1 MOL      0.247204
    158 H68         7.5990    4.2870   -1.0900 h1        1 MOL      0.087314
    159 H69         6.4840    1.8400   -2.2130 hc        1 MOL      0.019365
    160 H70         5.4710    3.3370   -2.0000 hc        1 MOL      0.019365
    161 H71         6.9040    2.0980    0.3040 hc        1 MOL     -0.004142
    162 H72         5.3240    1.4630   -0.1760 hc        1 MOL     -0.004142
    163 N14         7.5400    5.2690   -3.5140 n         1 MOL     -0.293699
    164 C55         7.2110    6.4190   -2.6390 c3        1 MOL     -0.143472
    165 H73         7.6220    6.2470   -1.6440 h1        1 MOL      0.083520
    166 H74         7.6420    7.3300   -3.0560 h1        1 MOL      0.083520
    167 H75         6.1290    6.5270   -2.5710 h1        1 MOL      0.083520
    168 H76         7.5500    5.4330   -4.5060 hn        1 MOL      0.256553
    169 Ca1        -8.5270   -0.0500   -0.9070 Ca        1 MOL      1.623146
    170 O24        -7.7800    1.9480   -3.1260 oh        1 MOL     -0.749623
    171 H77        -7.0880    1.9580   -3.7830 ho        1 MOL      0.368370
    172 H78        -8.5890    1.9160   -3.6330 ho        1 MOL      0.368370
    173 O25       -10.7680    1.3150   -2.1200 oh        1 MOL     -0.749623
    174 H79       -10.5720    1.2300   -3.0580 ho        1 MOL      0.368370
    175 H80       -11.2240    2.1550   -2.0490 ho        1 MOL      0.368370
    176 O26        -8.9100   -1.3950   -3.0090 oh        1 MOL     -0.749623
    177 H81        -9.5710   -1.9250   -3.4420 ho        1 MOL      0.368370
    178 H82        -8.1230   -1.5230   -3.5290 ho        1 MOL      0.368370
@<TRIPOS>BOND
     1    1    2 1   
     2    1    4 1   
     3    1    5 1   
     4    1    6 1   
     5    2    3 2   
     6    2    7 1   
     7    7    8 1   
     8    7   15 1   
     9    8    9 1   
    10    8   11 1   
    11    8   16 1   
    12    9   10 2   
    13    9   19 1   
    14   11   12 1   
    15   11   17 1   
    16   11   18 1   
    17   12   13 1   
    18   12   14 1   
    19   19   20 1   
    20   19   24 1   
    21   20   21 1   
    22   20   23 1   
    23   20   25 1   
    24   21   22 2   
    25   21   29 1   
    26   23   26 1   
    27   23   27 1   
    28   23   28 1   
    29   29   30 1   
    30   29   37 1   
    31   30   31 1   
    32   30   33 1   
    33   30   38 1   
    34   31   32 2   
    35   31   41 1   
    36   33   34 1   
    37   33   39 1   
    38   33   40 1   
    39   34   35 1   
    40   34   36 1   
    41   41   42 1   
    42   41   45 1   
    43   42   43 1   
    44   42   46 1   
    45   42   47 1   
    46   43   44 2   
    47   43   48 1   
    48   48   49 1   
    49   48   56 1   
    50   49   50 1   
    51   49   52 1   
    52   49   57 1   
    53   50   51 2   
    54   50   62 1   
    55   52   53 1   
    56   52   58 1   
    57   52   59 1   
    58   53   54 1   
    59   53   55 2   
    60   54   60 1   
    61   54   61 1   
    62   62   63 1   
    63   62   66 1   
    64   63   64 1   
    65   63   67 1   
    66   63   68 1   
    67   64   65 2   
    68   64   69 1   
    69   69   70 1   
    70   69   76 1   
    71   70   71 1   
    72   70   73 1   
    73   70   77 1   
    74   71   72 2   
    75   71   83 1   
    76   73   74 1   
    77   73   75 1   
    78   73   78 1   
    79   74   80 1   
    80   74   81 1   
    81   74   82 1   
    82   75   79 1   
    83   83   84 1   
    84   83   91 1   
    85   84   85 1   
    86   84   87 1   
    87   84   92 1   
    88   85   86 2   
    89   85  102 1   
    90   87   88 1   
    91   87   89 1   
    92   87   93 1   
    93   88   90 1   
    94   88   94 1   
    95   88   95 1   
    96   89   96 1   
    97   89   97 1   
    98   89   98 1   
    99   90   99 1   
   100   90  100 1   
   101   90  101 1   
   102  102  103 1   
   103  102  110 1   
   104  103  104 1   
   105  103  106 1   
   106  103  111 1   
   107  104  105 2   
   108  104  114 1   
   109  106  107 1   
   110  106  112 1   
   111  106  113 1   
   112  107  108 1   
   113  107  109 1   
   114  114  115 1   
   115  114  125 1   
   116  115  116 1   
   117  115  118 1   
   118  115  126 1   
   119  116  117 2   
   120  116  134 1   
   121  118  119 1   
   122  118  127 1   
   123  118  128 1   
   124  119  120 ar  
   125  119  121 ar  
   126  120  122 ar  
   127  120  129 1   
   128  121  123 ar  
   129  121  130 1   
   130  122  124 ar  
   131  122  131 1   
   132  123  124 ar  
   133  123  132 1   
   134  124  133 1   
   135  134  135 1   
   136  134  140 1   
   137  135  136 1   
   138  135  138 1   
   139  135  141 1   
   140  136  137 2   
   141  136  148 1   
   142  138  139 1   
   143  138  142 1   
   144  138  143 1   
   145  139  140 1   
   146  139  144 1   
   147  139  145 1   
   148  140  146 1   
   149  140  147 1   
   150  148  149 1   
   151  148  157 1   
   152  149  150 1   
   153  149  152 1   
   154  149  158 1   
   155  150  151 2   
   156  150  163 1   
   157  152  153 1   
   158  152  159 1   
   159  152  160 1   
   160  153  154 1   
   161  153  161 1   
   162  153  162 1   
   163  154  155 1   
   164  154  156 1   
   165  163  164 1   
   166  163  168 1   
   167  164  165 1   
   168  164  166 1   
   169  164  167 1   
   170  170  171 1   
   171  170  172 1   
   172  173  174 1   
   173  173  175 1   
   174  176  177 1   
   175  176  178 1   
@<TRIPOS>SUBSTRUCTURE
     1 MOL         1 TEMP              0 ****  ****    0 ROOT
