@<TRIPOS>MOLECULE
MOL
  192   187     1     0     0
SMALL
resp


@<TRIPOS>ATOM
      1 C1         -4.3210   -4.7140    2.2760 c3        1 MOL     -0.199784
      2 C2         -3.1560   -4.5810    1.3240 c         1 MOL      0.325856
      3 O1         -2.6170   -3.4460    1.1540 o         1 MOL     -0.424882
      4 H1         -5.2110   -4.2740    1.8260 hc        1 MOL      0.061046
      5 H2         -4.5040   -5.7690    2.4830 hc        1 MOL      0.061046
      6 H3         -4.0910   -4.1960    3.2070 hc        1 MOL      0.061046
      7 N1         -2.7530   -5.5890    0.5440 n         1 MOL     -0.393952
      8 C3         -1.6810   -5.3920   -0.5050 c3        1 MOL     -0.078497
      9 C4         -0.3420   -4.8500   -0.0630 c         1 MOL      0.582013
     10 O2          0.3160   -4.0910   -0.7620 o         1 MOL     -0.521633
     11 C5         -2.1450   -4.6200   -1.7580 c3        1 MOL      0.184925
     12 C6         -3.5060   -5.0470   -2.2770 c         1 MOL      0.554662
     13 O3         -3.5390   -5.9110   -3.1570 o         1 MOL     -0.690279
     14 O4         -4.5880   -4.5580   -1.8080 o         1 MOL     -0.690279
     15 H4         -3.1550   -6.5010    0.6480 hn        1 MOL      0.310876
     16 H5         -1.4890   -6.3980   -0.8780 h1        1 MOL      0.096220
     17 H6         -1.4190   -4.7410   -2.5580 hc        1 MOL     -0.029841
     18 H7         -2.2850   -3.5540   -1.5950 hc        1 MOL     -0.029841
     19 N2         -0.0060   -5.1630    1.2120 n         1 MOL     -0.451951
     20 C7          1.2280   -4.6100    1.8270 c3        1 MOL     -0.128105
     21 C8          2.5700   -5.2580    1.4100 c         1 MOL      0.510716
     22 O5          2.5080   -6.3390    0.8740 o         1 MOL     -0.573295
     23 C9          1.1030   -4.4990    3.2970 c3        1 MOL      0.627117
     24 C10         0.8620   -5.7060    4.1180 c3        1 MOL     -0.461034
     25 C11        -0.0120   -3.4200    3.6560 c3        1 MOL     -0.428700
     26 C12         1.2860   -5.5480    5.5650 c3        1 MOL     -0.339874
     27 H8         -0.5460   -5.8540    1.7160 hn        1 MOL      0.260230
     28 H9          1.4220   -3.6020    1.4610 h1        1 MOL      0.027344
     29 H10         2.0210   -4.0090    3.6250 hc        1 MOL     -0.038486
     30 H11         1.6810   -6.3540    3.7850 hc        1 MOL      0.137290
     31 H12        -0.1620   -6.0630    3.9740 hc        1 MOL      0.137290
     32 H13         0.2040   -2.4910    3.1340 hc        1 MOL      0.093758
     33 H14        -0.9180   -3.7310    3.1410 hc        1 MOL      0.093758
     34 H15        -0.0760   -3.2060    4.7270 hc        1 MOL      0.093758
     35 H16         0.8460   -4.6560    6.0400 hc        1 MOL      0.105695
     36 H17         1.2010   -6.4700    6.1350 hc        1 MOL      0.105695
     37 H18         2.3490   -5.3260    5.6340 hc        1 MOL      0.105695
     38 N3          3.8100   -4.7370    1.6240 n         1 MOL     -0.321496
     39 C13         4.1950   -3.3300    1.8760 c3        1 MOL     -0.123817
     40 C14         4.9810   -2.8180    0.6490 c         1 MOL      0.539924
     41 O6          5.5220   -1.7510    0.7410 o         1 MOL     -0.480995
     42 C15         5.1250   -3.2290    3.0760 c3        1 MOL     -0.087080
     43 C16         4.7350   -4.1650    4.2570 c         1 MOL      0.685362
     44 O7          5.0030   -5.3890    4.2610 o         1 MOL     -0.708276
     45 O8          4.0330   -3.7170    5.1830 o         1 MOL     -0.708276
     46 H19         4.6060   -5.3430    1.4530 hn        1 MOL      0.262350
     47 H20         3.3480   -2.6710    2.1010 h1        1 MOL      0.126993
     48 H21         5.1450   -2.2110    3.4640 hc        1 MOL      0.017771
     49 H22         6.1250   -3.5350    2.7580 hc        1 MOL      0.017771
     50 N4          5.1100   -3.5980   -0.4870 n         1 MOL     -0.408807
     51 C17         5.7610   -3.1420   -1.7160 c3        1 MOL     -0.125379
     52 C18         7.2080   -2.6950   -1.6590 c         1 MOL      0.674092
     53 O9          7.9590   -3.2530   -0.9120 o         1 MOL     -0.554051
     54 H23         4.6170   -4.4730   -0.5630 hn        1 MOL      0.298429
     55 H24         5.1630   -2.3790   -2.2180 h1        1 MOL      0.070898
     56 H25         5.6250   -3.9330   -2.4480 h1        1 MOL      0.070898
     57 N5          7.4940   -1.6320   -2.3700 n         1 MOL     -0.623698
     58 C19         8.7560   -0.9490   -2.3330 c3        1 MOL      0.252844
     59 C20         8.9520    0.0680   -1.1590 c         1 MOL      0.310974
     60 O10         9.9370    0.8360   -1.1930 o         1 MOL     -0.544364
     61 C21         8.7660   -0.1600   -3.6690 c3        1 MOL     -0.281372
     62 C22         8.6060   -0.9760   -4.9410 c         1 MOL      0.717162
     63 O11         8.1080   -0.4330   -5.9850 o         1 MOL     -0.727227
     64 O12         9.0570   -2.1740   -4.9880 o         1 MOL     -0.727227
     65 H26         6.7390   -1.3100   -2.9540 hn        1 MOL      0.324331
     66 H27         9.5260   -1.7030   -2.2550 h1        1 MOL      0.071567
     67 H28         9.7050    0.3910   -3.7620 hc        1 MOL      0.044872
     68 H29         7.9310    0.5440   -3.6520 hc        1 MOL      0.044872
     69 N6          8.0850    0.0810   -0.1620 n         1 MOL     -0.045291
     70 C23         8.2350    0.8880    1.0770 c3        1 MOL     -0.097417
     71 C24         7.6320    2.3070    0.8850 c         1 MOL      0.519186
     72 O13         7.7220    3.1270    1.8050 o         1 MOL     -0.549386
     73 H30         7.3470   -0.6070   -0.1810 hn        1 MOL      0.095928
     74 H31         9.2720    0.9850    1.3860 h1        1 MOL      0.099845
     75 H32         7.7960    0.4720    1.9750 h1        1 MOL      0.099845
     76 N7          7.0150    2.6820   -0.2080 n         1 MOL     -0.448688
     77 C25         6.2880    3.9050   -0.4530 c3        1 MOL      0.032232
     78 C26         5.2080    4.3190    0.5740 c         1 MOL      0.257043
     79 O14         4.7170    5.4250    0.5440 o         1 MOL     -0.440119
     80 C27         7.3350    4.9820   -0.6840 c3        1 MOL      0.145222
     81 C28         8.4990    4.6280   -1.6680 c3        1 MOL     -0.072906
     82 C29         9.4760    5.8170   -1.8840 c         1 MOL      0.664422
     83 N8         10.3470    5.8210   -2.8480 n         1 MOL     -0.791213
     84 O15         9.5290    6.7480   -1.1170 o         1 MOL     -0.581686
     85 H33         7.1320    2.0010   -0.9590 hn        1 MOL      0.243656
     86 H34         5.8250    3.7840   -1.4330 h1        1 MOL      0.082969
     87 H35         7.8200    5.3080    0.2360 hc        1 MOL     -0.009002
     88 H36         6.8220    5.8430   -1.1090 hc        1 MOL     -0.009002
     89 H37         8.0020    4.3780   -2.6040 hc        1 MOL      0.009739
     90 H38         8.9660    3.7340   -1.2660 hc        1 MOL      0.009739
     91 H39        10.4250    5.0470   -3.4920 hn        1 MOL      0.356336
     92 H40        10.8940    6.6650   -2.8970 hn        1 MOL      0.356336
     93 N9          4.7670    3.3010    1.3690 n         1 MOL     -0.030607
     94 C30         3.7050    3.5200    2.3740 c3        1 MOL     -0.096865
     95 C31         2.2720    3.3390    1.9430 c         1 MOL      0.488782
     96 O16         1.2990    3.9730    2.3750 o         1 MOL     -0.528425
     97 C32         4.0010    2.8060    3.6780 c3        1 MOL      0.265797
     98 C33         4.2640    1.2550    3.5300 c3        1 MOL     -0.248441
     99 C34         5.1850    3.2980    4.4520 c3        1 MOL     -0.248441
    100 H41         5.0900    2.3600    1.2240 hn        1 MOL      0.133388
    101 H42         3.8050    4.5750    2.6480 h1        1 MOL      0.091195
    102 H43         3.1640    2.9300    4.3730 hc        1 MOL     -0.025910
    103 H44         5.1320    1.1190    2.8920 hc        1 MOL      0.056071
    104 H45         4.4760    0.8260    4.5030 hc        1 MOL      0.056071
    105 H46         3.3850    0.7960    3.0700 hc        1 MOL      0.056071
    106 H47         5.1650    4.3890    4.4790 hc        1 MOL      0.056071
    107 H48         5.1250    2.8550    5.4480 hc        1 MOL      0.056071
    108 H49         6.0930    2.8850    4.0140 hc        1 MOL      0.056071
    109 N10         2.1230    2.4270    0.9720 n         1 MOL     -0.441950
    110 C35         0.7210    2.0740    0.5540 c3        1 MOL      0.233217
    111 C36        -0.0240    3.0920   -0.2970 c         1 MOL      0.574416
    112 O17         0.5810    4.0150   -0.9010 o         1 MOL     -0.571535
    113 C37         0.6530    0.6450   -0.0740 c3        1 MOL     -0.217481
    114 C38        -0.5610   -0.1580    0.3910 c         1 MOL      0.536060
    115 N11        -0.6670   -1.4100    0.1390 n         1 MOL     -0.426193
    116 O18        -1.5150    0.3170    0.9780 o         1 MOL     -0.535314
    117 H50         2.9330    2.0330    0.5250 hn        1 MOL      0.220137
    118 H51         0.0740    2.0000    1.4260 h1        1 MOL      0.021446
    119 H52         1.5050    0.0720    0.2930 hc        1 MOL      0.047422
    120 H53         0.7170    0.8060   -1.1440 hc        1 MOL      0.047422
    121 H54        -0.0990   -1.8160   -0.5850 hn        1 MOL      0.238146
    122 H55        -1.5000   -1.9150    0.4130 hn        1 MOL      0.238146
    123 N12        -1.3090    2.9520   -0.3140 n         1 MOL     -0.479865
    124 C39        -2.2700    3.8440   -0.9640 c3        1 MOL      0.211741
    125 C40        -3.6070    3.8390   -0.1700 c         1 MOL      0.500672
    126 O19        -3.9340    2.9340    0.6070 o         1 MOL     -0.469016
    127 C41        -2.3730    3.4430   -2.4560 c3        1 MOL     -0.209591
    128 C42        -2.8830    2.0870   -2.6580 ca        1 MOL      0.346829
    129 C43        -2.0540    0.9760   -2.9360 ca        1 MOL     -0.360529
    130 C44        -4.2670    1.8470   -2.6020 ca        1 MOL     -0.360529
    131 C45        -2.6380   -0.3140   -3.2200 ca        1 MOL     -0.042515
    132 C46        -4.8800    0.5860   -2.9000 ca        1 MOL     -0.042515
    133 C47        -4.0060   -0.4740   -3.2460 ca        1 MOL      0.062464
    134 O20        -4.5750   -1.6560   -3.7230 oh        1 MOL     -0.402564
    135 H56        -1.7900    2.1900    0.1560 hn        1 MOL      0.216524
    136 H57        -1.9480    4.8830   -0.8690 h1        1 MOL      0.060291
    137 H58        -1.3690    3.4240   -2.8810 hc        1 MOL      0.045780
    138 H59        -2.9740    4.2160   -2.9270 hc        1 MOL      0.045780
    139 H60        -0.9780    0.9980   -2.9020 ha        1 MOL      0.167149
    140 H61        -4.9470    2.6660   -2.4400 ha        1 MOL      0.167149
    141 H62        -1.9510   -1.0980   -3.5000 ha        1 MOL      0.100582
    142 H63        -5.9590    0.5630   -2.9140 ha        1 MOL      0.100582
    143 H64        -3.9330   -2.2590   -4.1200 ho        1 MOL      0.347461
    144 N13        -4.4110    4.8870   -0.4150 n         1 MOL     -0.534909
    145 C48        -5.7510    5.0630    0.1990 c3        1 MOL      0.180389
    146 C49        -6.8300    4.3260   -0.6050 c         1 MOL      0.472451
    147 O21        -7.2570    4.8850   -1.5810 o         1 MOL     -0.538877
    148 C50        -5.9550    6.5440    0.3120 c3        1 MOL      0.129312
    149 C51        -7.1060    6.8820    1.2870 c3        1 MOL     -0.193601
    150 C52        -7.4180    8.3430    1.2940 c         1 MOL      0.731107
    151 O22        -7.9680    8.8670    0.3090 o         1 MOL     -0.734792
    152 O23        -7.1430    9.0510    2.2830 o         1 MOL     -0.734792
    153 H65        -3.9290    5.6930   -0.7680 hn        1 MOL      0.267353
    154 H66        -5.6400    4.6280    1.1900 h1        1 MOL      0.013469
    155 H67        -6.1930    6.9280   -0.6800 hc        1 MOL     -0.014841
    156 H68        -5.1070    7.1210    0.6730 hc        1 MOL     -0.014841
    157 H69        -6.7760    6.5350    2.2600 hc        1 MOL     -0.000698
    158 H70        -7.9510    6.2410    1.0330 hc        1 MOL     -0.000698
    159 N14        -7.4150    3.2370   -0.1540 n         1 MOL     -0.313045
    160 C53        -7.0970    2.3560    0.9460 c3        1 MOL      0.052784
    161 C54        -8.0950    2.5290    2.0620 c         1 MOL      0.457772
    162 O24        -9.1860    3.0410    1.8140 o         1 MOL     -0.520473
    163 C55        -7.1550    0.8960    0.3180 c3        1 MOL      0.459848
    164 C56        -8.3210    0.5760   -0.6430 c3        1 MOL     -0.525047
    165 C57        -8.2250   -0.8680   -1.1450 c         1 MOL      0.764871
    166 O25        -7.8730   -1.1130   -2.3640 o         1 MOL     -0.742643
    167 O26        -8.3970   -1.9120   -0.3980 o         1 MOL     -0.742643
    168 H71        -8.1930    2.9260   -0.7250 hn        1 MOL      0.214130
    169 H72        -6.0810    2.4420    1.3120 h1        1 MOL     -0.024918
    170 H73        -7.1740    0.1930    1.1460 hc        1 MOL     -0.110505
    171 H74        -6.2040    0.7990   -0.2180 hc        1 MOL     -0.110505
    172 H75        -8.4420    1.3190   -1.4260 hc        1 MOL      0.143083
    173 H76        -9.2240    0.6490   -0.0380 hc        1 MOL      0.143083
    174 N15        -7.7550    1.9800    3.1950 n         1 MOL     -0.253346
    175 C58        -8.5550    1.6960    4.3460 c3        1 MOL     -0.328048
    176 H77        -9.6090    1.7560    4.0780 h1        1 MOL      0.125730
    177 H78        -8.3290    0.6930    4.7080 h1        1 MOL      0.125730
    178 H79        -8.3370    2.4220    5.1280 h1        1 MOL      0.125730
    179 H80        -6.8120    1.6330    3.2420 hn        1 MOL      0.262686
    180 Ca1        -6.7930   -3.5220   -1.6520 Ca        1 MOL      1.676991
    181 O27        -7.3550   -3.6380   -4.2630 oh        1 MOL     -0.811697
    182 H81        -7.9790   -4.3310   -4.4640 ho        1 MOL      0.392542
    183 H82        -6.5920   -3.8400   -4.8060 ho        1 MOL      0.392542
    184 O28        -4.8640   -2.2680   -0.1030 oh        1 MOL     -0.811697
    185 H83        -4.4500   -1.5000    0.3070 ho        1 MOL      0.392542
    186 H84        -4.2230   -2.9760    0.0040 ho        1 MOL      0.392542
    187 O29        -9.2030   -4.7140   -1.5350 oh        1 MOL     -0.811697
    188 H85        -9.6610   -5.5380   -1.3630 ho        1 MOL      0.392542
    189 H86        -9.7150   -4.0540   -1.0740 ho        1 MOL      0.392542
    190 O30        -6.7380   -6.0760   -2.4110 oh        1 MOL     -0.811697
    191 H87        -5.8310   -6.3040   -2.5870 ho        1 MOL      0.392542
    192 H88        -7.2480   -6.7330   -2.8930 ho        1 MOL      0.392542
@<TRIPOS>BOND
     1    1    2 1   
     2    1    4 1   
     3    1    5 1   
     4    1    6 1   
     5    2    3 2   
     6    2    7 1   
     7    7    8 1   
     8    7   15 1   
     9    8    9 1   
    10    8   11 1   
    11    8   16 1   
    12    9   10 2   
    13    9   19 1   
    14   11   12 1   
    15   11   17 1   
    16   11   18 1   
    17   12   13 1   
    18   12   14 1   
    19   19   20 1   
    20   19   27 1   
    21   20   21 1   
    22   20   23 1   
    23   20   28 1   
    24   21   22 2   
    25   21   38 1   
    26   23   24 1   
    27   23   25 1   
    28   23   29 1   
    29   24   26 1   
    30   24   30 1   
    31   24   31 1   
    32   25   32 1   
    33   25   33 1   
    34   25   34 1   
    35   26   35 1   
    36   26   36 1   
    37   26   37 1   
    38   38   39 1   
    39   38   46 1   
    40   39   40 1   
    41   39   42 1   
    42   39   47 1   
    43   40   41 2   
    44   40   50 1   
    45   42   43 1   
    46   42   48 1   
    47   42   49 1   
    48   43   44 1   
    49   43   45 1   
    50   50   51 1   
    51   50   54 1   
    52   51   52 1   
    53   51   55 1   
    54   51   56 1   
    55   52   53 2   
    56   52   57 1   
    57   57   58 1   
    58   57   65 1   
    59   58   59 1   
    60   58   61 1   
    61   58   66 1   
    62   59   60 2   
    63   59   69 1   
    64   61   62 1   
    65   61   67 1   
    66   61   68 1   
    67   62   63 1   
    68   62   64 1   
    69   69   70 1   
    70   69   73 1   
    71   70   71 1   
    72   70   74 1   
    73   70   75 1   
    74   71   72 2   
    75   71   76 1   
    76   76   77 1   
    77   76   85 1   
    78   77   78 1   
    79   77   80 1   
    80   77   86 1   
    81   78   79 2   
    82   78   93 1   
    83   80   81 1   
    84   80   87 1   
    85   80   88 1   
    86   81   82 1   
    87   81   89 1   
    88   81   90 1   
    89   82   83 1   
    90   82   84 2   
    91   83   91 1   
    92   83   92 1   
    93   93   94 1   
    94   93  100 1   
    95   94   95 1   
    96   94   97 1   
    97   94  101 1   
    98   95   96 2   
    99   95  109 1   
   100   97   98 1   
   101   97   99 1   
   102   97  102 1   
   103   98  103 1   
   104   98  104 1   
   105   98  105 1   
   106   99  106 1   
   107   99  107 1   
   108   99  108 1   
   109  109  110 1   
   110  109  117 1   
   111  110  111 1   
   112  110  113 1   
   113  110  118 1   
   114  111  112 2   
   115  111  123 1   
   116  113  114 1   
   117  113  119 1   
   118  113  120 1   
   119  114  115 1   
   120  114  116 2   
   121  115  121 1   
   122  115  122 1   
   123  123  124 1   
   124  123  135 1   
   125  124  125 1   
   126  124  127 1   
   127  124  136 1   
   128  125  126 2   
   129  125  144 1   
   130  127  128 1   
   131  127  137 1   
   132  127  138 1   
   133  128  129 ar  
   134  128  130 ar  
   135  129  131 ar  
   136  129  139 1   
   137  130  132 ar  
   138  130  140 1   
   139  131  133 ar  
   140  131  141 1   
   141  132  133 ar  
   142  132  142 1   
   143  133  134 1   
   144  134  143 1   
   145  144  145 1   
   146  144  153 1   
   147  145  146 1   
   148  145  148 1   
   149  145  154 1   
   150  146  147 2   
   151  146  159 1   
   152  148  149 1   
   153  148  155 1   
   154  148  156 1   
   155  149  150 1   
   156  149  157 1   
   157  149  158 1   
   158  150  151 1   
   159  150  152 1   
   160  159  160 1   
   161  159  168 1   
   162  160  161 1   
   163  160  163 1   
   164  160  169 1   
   165  161  162 2   
   166  161  174 1   
   167  163  164 1   
   168  163  170 1   
   169  163  171 1   
   170  164  165 1   
   171  164  172 1   
   172  164  173 1   
   173  165  166 1   
   174  165  167 1   
   175  174  175 1   
   176  174  179 1   
   177  175  176 1   
   178  175  177 1   
   179  175  178 1   
   180  181  182 1   
   181  181  183 1   
   182  184  185 1   
   183  184  186 1   
   184  187  188 1   
   185  187  189 1   
   186  190  191 1   
   187  190  192 1   
@<TRIPOS>SUBSTRUCTURE
     1 MOL         1 TEMP              0 ****  ****    0 ROOT
