@<TRIPOS>MOLECULE
MOL
  186   183     1     0     0
SMALL
resp


@<TRIPOS>ATOM
      1 C1         11.6000    5.6420   -2.5460 c3        1 MOL     -0.317358
      2 C2         11.3730    4.3020   -1.8130 c         1 MOL      0.612235
      3 O1         11.6600    3.2350   -2.2770 o         1 MOL     -0.596400
      4 H1         11.5710    5.4760   -3.6230 hc        1 MOL      0.080155
      5 H2         10.8180    6.3470   -2.2660 hc        1 MOL      0.080155
      6 H3         12.5730    6.0490   -2.2680 hc        1 MOL      0.080155
      7 N1         10.8920    4.4300   -0.6040 n         1 MOL     -0.020828
      8 C3         10.5780    3.2950    0.2530 c3        1 MOL     -0.845926
      9 C4          9.3040    2.5130   -0.1910 c         1 MOL      0.844944
     10 O2          8.2570    3.1600   -0.2320 o         1 MOL     -0.651826
     11 C5         10.4110    3.7260    1.7570 c3        1 MOL      0.399395
     12 C6          9.3470    4.8320    2.1140 c         1 MOL      0.613179
     13 O3          8.8450    5.6210    1.2550 o         1 MOL     -0.686073
     14 O4          8.9470    4.8970    3.2950 o         1 MOL     -0.686073
     15 H4         10.6190    5.3460   -0.2850 hn        1 MOL      0.061997
     16 H5         11.4540    2.6650    0.1680 h1        1 MOL      0.227486
     17 H6         11.3520    4.0310    2.2100 hc        1 MOL     -0.028152
     18 H7         10.1770    2.8220    2.3150 hc        1 MOL     -0.028152
     19 N2          9.4610    1.2830   -0.6490 n         1 MOL     -0.379495
     20 C7          8.4140    0.3500   -1.0500 c3        1 MOL     -0.105292
     21 C8          7.4630    0.1060    0.1380 c         1 MOL      0.615021
     22 O5          7.9690   -0.3460    1.2290 o         1 MOL     -0.554797
     23 C9          9.1390   -0.9530   -1.5400 c3        1 MOL     -0.123235
     24 C10         8.1350   -1.9910   -2.0530 c3        1 MOL     -0.000359
     25 C11         8.8470   -3.2000   -2.5870 c3        1 MOL      0.283558
     26 C12         7.8640   -4.3010   -2.9420 c3        1 MOL      0.087391
     27 N3          8.5880   -5.3340   -3.7050 n4        1 MOL     -0.287406
     28 H8         10.3640    0.8420   -0.6490 hn        1 MOL      0.272656
     29 H9          7.8120    0.7130   -1.8840 h1        1 MOL      0.120944
     30 H10         9.5930   -1.3850   -0.6550 hc        1 MOL      0.074743
     31 H11         9.8620   -0.7440   -2.3320 hc        1 MOL      0.074743
     32 H12         7.6020   -1.5450   -2.8900 hc        1 MOL     -0.017246
     33 H13         7.4590   -2.2860   -1.2560 hc        1 MOL     -0.017246
     34 H14         9.6070   -3.5810   -1.9000 hc        1 MOL     -0.073736
     35 H15         9.4010   -2.9990   -3.5060 hc        1 MOL     -0.073736
     36 H16         7.1610   -3.8540   -3.6510 hx        1 MOL      0.047291
     37 H17         7.2950   -4.6740   -2.0900 hx        1 MOL      0.047291
     38 H18         7.9680   -6.0830   -3.9850 hn        1 MOL      0.251798
     39 H19         8.9750   -4.9780   -4.5830 hn        1 MOL      0.251798
     40 H20         9.3400   -5.6440   -3.1070 hn        1 MOL      0.251798
     41 N4          6.1440    0.3270   -0.0110 n         1 MOL     -0.462453
     42 C13         5.1540    0.2890    1.1120 c3        1 MOL      0.004591
     43 C14         3.7510    0.2580    0.4240 c         1 MOL      0.442177
     44 O6          3.6630    0.5730   -0.8300 o         1 MOL     -0.555442
     45 C15         5.2780    1.5620    2.0560 c3        1 MOL      0.244251
     46 C16         5.4460    2.9150    1.2650 c         1 MOL      0.670160
     47 O7          5.2830    3.0560   -0.0070 o         1 MOL     -0.785978
     48 O8          5.7130    3.9210    1.9490 o         1 MOL     -0.785978
     49 H21         5.8680    0.6880   -0.9130 hn        1 MOL      0.268674
     50 H22         5.2850   -0.6350    1.6670 h1        1 MOL      0.083296
     51 H23         6.2040    1.3200    2.5780 hc        1 MOL     -0.018239
     52 H24         4.3870    1.5400    2.6830 hc        1 MOL     -0.018239
     53 N5          2.7440   -0.3010    1.0060 n         1 MOL     -0.332498
     54 C17         2.6810   -0.7690    2.3460 c3        1 MOL      0.038677
     55 C18         2.7710   -2.2640    2.5770 c         1 MOL      0.661947
     56 O9          3.3440   -2.9480    1.7440 o         1 MOL     -0.538752
     57 H25         1.9210   -0.4070    0.4260 hn        1 MOL      0.307247
     58 H26         1.6980   -0.4380    2.6830 h1        1 MOL      0.018160
     59 H27         3.4690   -0.3310    2.9440 h1        1 MOL      0.018160
     60 N6          2.2110   -2.6990    3.7510 n         1 MOL     -0.580100
     61 C19         2.0720   -4.1330    4.1570 c3        1 MOL      0.169451
     62 C20         1.1980   -5.0520    3.1710 c         1 MOL      0.424570
     63 O10        -0.0130   -4.9360    3.2470 o         1 MOL     -0.488054
     64 C21         1.8090   -4.1110    5.6460 c3        1 MOL     -0.209153
     65 C22         1.8370   -5.4870    6.2920 c         1 MOL      0.709430
     66 O11         2.2230   -6.4530    5.5890 o         1 MOL     -0.658907
     67 O12         1.4760   -5.5790    7.4950 o         1 MOL     -0.658907
     68 H28         1.5700   -2.0690    4.2020 hn        1 MOL      0.295850
     69 H29         3.0660   -4.5770    4.0280 h1        1 MOL      0.003991
     70 H30         0.8900   -3.5740    5.9150 hc        1 MOL      0.063401
     71 H31         2.6250   -3.5830    6.1360 hc        1 MOL      0.063401
     72 N7          1.8330   -5.9150    2.3660 n         1 MOL     -0.157871
     73 C23         1.1710   -6.8840    1.5000 c3        1 MOL     -0.247807
     74 C24         0.6870   -6.1690    0.1920 c         1 MOL      0.537037
     75 O13        -0.1640   -6.6840   -0.5280 o         1 MOL     -0.561860
     76 H32         2.8330   -6.0300    2.4960 hn        1 MOL      0.227891
     77 H33         0.2940   -7.3290    1.9720 h1        1 MOL      0.129760
     78 H34         1.8710   -7.6340    1.1410 h1        1 MOL      0.129760
     79 N8          1.2130   -4.9650   -0.0540 n         1 MOL     -0.182938
     80 C25         0.8690   -4.2190   -1.3200 c3        1 MOL      0.100800
     81 C26         0.2620   -2.8930   -0.8940 c         1 MOL      0.307424
     82 O14         0.5290   -2.3850    0.1920 o         1 MOL     -0.439810
     83 C27         2.0690   -3.9170   -2.2990 c3        1 MOL      0.142103
     84 C28         3.1870   -3.2140   -1.4850 c3        1 MOL     -0.333244
     85 O15         2.5370   -5.0960   -2.8520 oh        1 MOL     -0.605873
     86 H35         1.8400   -4.5780    0.6410 hn        1 MOL      0.095338
     87 H36         0.0980   -4.7590   -1.8700 h1        1 MOL      0.055583
     88 H37         1.6760   -3.3130   -3.1140 h1        1 MOL      0.080808
     89 H38         3.2440   -4.8630   -3.4560 ho        1 MOL      0.379132
     90 H39         2.9360   -2.2790   -0.9760 hc        1 MOL      0.093374
     91 H40         3.5360   -3.9710   -0.7880 hc        1 MOL      0.093374
     92 H41         4.0290   -3.0310   -2.1620 hc        1 MOL      0.093374
     93 N9         -0.6620   -2.3850   -1.6970 n         1 MOL     -0.291168
     94 C29        -1.1920   -1.0050   -1.4830 c3        1 MOL     -0.175360
     95 C30        -2.6640   -0.9590   -1.0630 c         1 MOL      0.712923
     96 O16        -3.0670   -0.0520   -0.3170 o         1 MOL     -0.559947
     97 C31        -0.9930   -0.1780   -2.8210 c3        1 MOL      0.281657
     98 C32         0.2370   -0.6370   -3.6820 c3        1 MOL     -0.313129
     99 C33        -1.0870    1.2880   -2.4880 c3        1 MOL     -0.182113
    100 C34         1.6060   -0.3300   -3.0310 c3        1 MOL      0.076993
    101 H42        -0.8630   -2.8580   -2.5620 hn        1 MOL      0.272753
    102 H43        -0.6980   -0.4290   -0.6950 h1        1 MOL      0.104832
    103 H44        -1.8770   -0.3120   -3.4410 hc        1 MOL     -0.057879
    104 H45         0.1670    0.0870   -4.5060 hc        1 MOL      0.058647
    105 H46         0.1650   -1.6830   -3.9500 hc        1 MOL      0.058647
    106 H47        -2.0700    1.5030   -2.0680 hc        1 MOL      0.050637
    107 H48        -0.2740    1.6130   -1.8450 hc        1 MOL      0.050637
    108 H49        -1.0350    1.8270   -3.4330 hc        1 MOL      0.050637
    109 H50         1.8380    0.7330   -3.0480 hc        1 MOL     -0.005802
    110 H51         1.6200   -0.6680   -1.9930 hc        1 MOL     -0.005802
    111 H52         2.3180   -1.0030   -3.5100 hc        1 MOL     -0.005802
    112 N10        -3.4060   -2.0090   -1.3430 n         1 MOL     -0.499147
    113 C35        -4.8330   -2.2390   -0.8940 c3        1 MOL     -0.188865
    114 C36        -5.8730   -2.1650   -2.0000 c         1 MOL      0.753172
    115 O17        -5.5830   -2.3050   -3.1720 o         1 MOL     -0.532066
    116 C37        -4.9540   -3.5510   -0.0950 c3        1 MOL      0.401133
    117 C38        -4.4680   -4.7380   -0.8310 c3        1 MOL     -0.276580
    118 O18        -4.3190   -3.4760    1.2080 oh        1 MOL     -0.645174
    119 H53        -2.9500   -2.7260   -1.8930 hn        1 MOL      0.247558
    120 H54        -5.1210   -1.3780   -0.2850 h1        1 MOL      0.124019
    121 H55        -6.0080   -3.7810    0.0970 h1        1 MOL      0.045078
    122 H56        -3.3760   -3.3100    1.1340 ho        1 MOL      0.432589
    123 H57        -4.6870   -5.6650   -0.3040 hc        1 MOL      0.073541
    124 H58        -4.8330   -4.6980   -1.8630 hc        1 MOL      0.073541
    125 H59        -3.3920   -4.6840   -0.9530 hc        1 MOL      0.073541
    126 N11        -7.1650   -1.8750   -1.6610 n         1 MOL     -0.663671
    127 C39        -8.2590   -1.7080   -2.7330 c3        1 MOL     -0.099676
    128 C40        -9.0740   -0.4230   -2.5900 c         1 MOL      0.670075
    129 O19        -9.7060   -0.0030   -3.5820 o         1 MOL     -0.584579
    130 C41        -9.3200   -2.8290   -2.6640 c3        1 MOL      0.470239
    131 C42       -10.2380   -2.8670   -1.4290 c3        1 MOL     -0.332954
    132 O20        -8.6760   -4.0180   -2.7530 oh        1 MOL     -0.639122
    133 H60        -7.4370   -1.7640   -0.6860 hn        1 MOL      0.318577
    134 H61        -7.8220   -1.6990   -3.7310 h1        1 MOL      0.114140
    135 H62        -9.9710   -2.7490   -3.5290 h1        1 MOL     -0.044129
    136 H63        -8.4920   -4.2270   -3.6690 ho        1 MOL      0.408848
    137 H64       -11.0430   -3.5880   -1.5850 hc        1 MOL      0.090715
    138 H65        -9.6730   -3.1880   -0.5560 hc        1 MOL      0.090715
    139 H66       -10.6370   -1.8650   -1.2640 hc        1 MOL      0.090715
    140 N12        -9.0240    0.2180   -1.3900 n         1 MOL     -0.463397
    141 C43        -9.7700    1.5110   -1.1610 c3        1 MOL      0.050725
    142 C44        -8.9050    2.3740   -0.1100 c         1 MOL      0.393941
    143 O21        -8.3210    1.7230    0.7840 o         1 MOL     -0.502810
    144 C45       -11.2110    1.2330   -0.6290 c3        1 MOL     -0.144553
    145 C46       -11.2890    0.5190    0.7100 c3        1 MOL     -0.170931
    146 C47       -12.7150    0.3050    1.1870 c3        1 MOL      0.142192
    147 C48       -13.7090    1.4890    1.1140 c3        1 MOL      0.105772
    148 N13       -14.8340    1.2780    2.0990 n4        1 MOL     -0.379869
    149 H67        -8.6340   -0.2350   -0.5710 hn        1 MOL      0.284177
    150 H68        -9.8180    2.0460   -2.1130 h1        1 MOL      0.089939
    151 H69       -11.5830    0.5810   -1.4150 hc        1 MOL      0.052891
    152 H70       -11.8140    2.1390   -0.5420 hc        1 MOL      0.052891
    153 H71       -10.9170    1.1710    1.4960 hc        1 MOL      0.098340
    154 H72       -10.7740   -0.4440    0.6880 hc        1 MOL      0.098340
    155 H73       -12.6620   -0.1610    2.1670 hc        1 MOL     -0.028533
    156 H74       -13.1830   -0.4180    0.5140 hc        1 MOL     -0.028533
    157 H75       -14.1850    1.7190    0.1600 hx        1 MOL      0.056436
    158 H76       -13.1020    2.3770    1.3200 hx        1 MOL      0.056436
    159 H77       -15.4840    2.0160    1.8930 hn        1 MOL      0.287558
    160 H78       -15.2970    0.3880    1.9610 hn        1 MOL      0.287558
    161 H79       -14.4300    1.2680    3.0170 hn        1 MOL      0.287558
    162 N14        -8.8730    3.6890   -0.1930 n         1 MOL     -0.447608
    163 C49        -8.1620    4.4790    0.8420 c3        1 MOL      0.277735
    164 C50        -6.6690    4.2280    0.8750 c         1 MOL      0.352826
    165 O22        -6.0940    4.0230    1.9850 o         1 MOL     -0.538884
    166 C51        -8.4430    5.9220    0.6420 c3        1 MOL     -0.170189
    167 C52        -7.9850    6.6390    1.9460 c3        1 MOL     -0.236563
    168 C53        -8.6190    8.0500    1.9560 c         1 MOL      0.722188
    169 O23        -8.1510    8.9620    1.2740 o         1 MOL     -0.665399
    170 O24        -9.5340    8.2230    2.8320 o         1 MOL     -0.665399
    171 H80        -9.5390    4.1170   -0.8150 hn        1 MOL      0.273911
    172 H81        -8.5120    4.2270    1.8450 h1        1 MOL      0.055949
    173 H82        -9.5060    6.0740    0.4770 hc        1 MOL      0.059110
    174 H83        -7.9970    6.3600   -0.2520 hc        1 MOL      0.059110
    175 H84        -6.8980    6.6550    1.9450 hc        1 MOL      0.075564
    176 H85        -8.3760    6.0830    2.8060 hc        1 MOL      0.075564
    177 N15        -5.8950    4.0670   -0.1850 n         1 MOL     -0.242238
    178 C54        -5.9710    4.6990   -1.4680 c3        1 MOL     -0.005437
    179 H86        -6.1070    3.9400   -2.2390 h1        1 MOL      0.035664
    180 H87        -6.8160    5.3890   -1.4840 h1        1 MOL      0.035664
    181 H88        -5.0500    5.2490   -1.6570 h1        1 MOL      0.035664
    182 H89        -5.0130    3.6300    0.0570 hn        1 MOL      0.270305
    183 Ca1         6.5490    5.3850   -0.0380 Ca        1 MOL      1.722280
    184 O25         7.4520    4.8600   -2.5850 oh        1 MOL     -0.913490
    185 H90         7.4250    5.4910   -3.3000 ho        1 MOL      0.448732
    186 H91         7.3800    4.0050   -3.0020 ho        1 MOL      0.448732
@<TRIPOS>BOND
     1    1    2 1   
     2    1    4 1   
     3    1    5 1   
     4    1    6 1   
     5    2    3 2   
     6    2    7 1   
     7    7    8 1   
     8    7   15 1   
     9    8    9 1   
    10    8   11 1   
    11    8   16 1   
    12    9   10 2   
    13    9   19 1   
    14   11   12 1   
    15   11   17 1   
    16   11   18 1   
    17   12   13 1   
    18   12   14 1   
    19   19   20 1   
    20   19   28 1   
    21   20   21 1   
    22   20   23 1   
    23   20   29 1   
    24   21   22 2   
    25   21   41 1   
    26   23   24 1   
    27   23   30 1   
    28   23   31 1   
    29   24   25 1   
    30   24   32 1   
    31   24   33 1   
    32   25   26 1   
    33   25   34 1   
    34   25   35 1   
    35   26   27 1   
    36   26   36 1   
    37   26   37 1   
    38   27   38 1   
    39   27   39 1   
    40   27   40 1   
    41   41   42 1   
    42   41   49 1   
    43   42   43 1   
    44   42   45 1   
    45   42   50 1   
    46   43   44 2   
    47   43   53 1   
    48   45   46 1   
    49   45   51 1   
    50   45   52 1   
    51   46   47 1   
    52   46   48 1   
    53   53   54 1   
    54   53   57 1   
    55   54   55 1   
    56   54   58 1   
    57   54   59 1   
    58   55   56 2   
    59   55   60 1   
    60   60   61 1   
    61   60   68 1   
    62   61   62 1   
    63   61   64 1   
    64   61   69 1   
    65   62   63 2   
    66   62   72 1   
    67   64   65 1   
    68   64   70 1   
    69   64   71 1   
    70   65   66 1   
    71   65   67 1   
    72   72   73 1   
    73   72   76 1   
    74   73   74 1   
    75   73   77 1   
    76   73   78 1   
    77   74   75 2   
    78   74   79 1   
    79   79   80 1   
    80   79   86 1   
    81   80   81 1   
    82   80   83 1   
    83   80   87 1   
    84   81   82 2   
    85   81   93 1   
    86   83   84 1   
    87   83   85 1   
    88   83   88 1   
    89   84   90 1   
    90   84   91 1   
    91   84   92 1   
    92   85   89 1   
    93   93   94 1   
    94   93  101 1   
    95   94   95 1   
    96   94   97 1   
    97   94  102 1   
    98   95   96 2   
    99   95  112 1   
   100   97   98 1   
   101   97   99 1   
   102   97  103 1   
   103   98  100 1   
   104   98  104 1   
   105   98  105 1   
   106   99  106 1   
   107   99  107 1   
   108   99  108 1   
   109  100  109 1   
   110  100  110 1   
   111  100  111 1   
   112  112  113 1   
   113  112  119 1   
   114  113  114 1   
   115  113  116 1   
   116  113  120 1   
   117  114  115 2   
   118  114  126 1   
   119  116  117 1   
   120  116  118 1   
   121  116  121 1   
   122  117  123 1   
   123  117  124 1   
   124  117  125 1   
   125  118  122 1   
   126  126  127 1   
   127  126  133 1   
   128  127  128 1   
   129  127  130 1   
   130  127  134 1   
   131  128  129 2   
   132  128  140 1   
   133  130  131 1   
   134  130  132 1   
   135  130  135 1   
   136  131  137 1   
   137  131  138 1   
   138  131  139 1   
   139  132  136 1   
   140  140  141 1   
   141  140  149 1   
   142  141  142 1   
   143  141  144 1   
   144  141  150 1   
   145  142  143 2   
   146  142  162 1   
   147  144  145 1   
   148  144  151 1   
   149  144  152 1   
   150  145  146 1   
   151  145  153 1   
   152  145  154 1   
   153  146  147 1   
   154  146  155 1   
   155  146  156 1   
   156  147  148 1   
   157  147  157 1   
   158  147  158 1   
   159  148  159 1   
   160  148  160 1   
   161  148  161 1   
   162  162  163 1   
   163  162  171 1   
   164  163  164 1   
   165  163  166 1   
   166  163  172 1   
   167  164  165 2   
   168  164  177 1   
   169  166  167 1   
   170  166  173 1   
   171  166  174 1   
   172  167  168 1   
   173  167  175 1   
   174  167  176 1   
   175  168  169 1   
   176  168  170 1   
   177  177  178 1   
   178  177  182 1   
   179  178  179 1   
   180  178  180 1   
   181  178  181 1   
   182  184  185 1   
   183  184  186 1   
@<TRIPOS>SUBSTRUCTURE
     1 MOL         1 TEMP              0 ****  ****    0 ROOT
