@<TRIPOS>MOLECULE
MOL
  192   187     1     0     0
SMALL
resp


@<TRIPOS>ATOM
      1 C1        -10.1710    0.1150   -1.6050 c3        1 MOL     -0.486889
      2 C2         -8.7380   -0.1760   -1.1110 c         1 MOL      0.760132
      3 O1         -7.8020    0.0100   -1.8800 o         1 MOL     -0.633273
      4 H1        -10.1880    0.1050   -2.6950 hc        1 MOL      0.123662
      5 H2        -10.8490   -0.6500   -1.2250 hc        1 MOL      0.123662
      6 H3        -10.4880    1.0940   -1.2460 hc        1 MOL      0.123662
      7 N1         -8.5810   -0.4420    0.2030 n         1 MOL     -0.576815
      8 C3         -7.3820   -0.2440    1.0540 c3        1 MOL      0.142352
      9 C4         -6.6500   -1.5220    1.1390 c         1 MOL      0.303449
     10 O2         -6.1370   -1.9460    2.1920 o         1 MOL     -0.438942
     11 C5         -7.6720    0.4180    2.4340 c3        1 MOL     -0.026759
     12 C6         -8.8660   -0.1070    3.2160 c         1 MOL      0.636926
     13 O3         -8.9620    0.2450    4.4070 o         1 MOL     -0.632540
     14 O4         -9.7620   -0.8460    2.6390 o         1 MOL     -0.632540
     15 H4         -9.4430   -0.4900    0.7310 hn        1 MOL      0.231323
     16 H5         -6.7610    0.4180    0.4370 h1        1 MOL      0.070970
     17 H6         -7.9070    1.4490    2.1690 hc        1 MOL      0.025803
     18 H7         -6.7640    0.4070    3.0410 hc        1 MOL      0.025803
     19 N2         -6.5510   -2.2740    0.0630 n         1 MOL     -0.098408
     20 C7         -5.9620   -3.5730   -0.0420 c3        1 MOL      0.012838
     21 C8         -4.4840   -3.6890    0.4110 c         1 MOL      0.426427
     22 O5         -4.1650   -4.6660    1.0610 o         1 MOL     -0.517217
     23 C9         -6.2380   -4.1700   -1.4840 c3        1 MOL     -0.028090
     24 C10        -7.7660   -4.1560   -1.7680 c3        1 MOL     -0.095253
     25 C11        -8.0620   -4.7650   -3.1710 c3        1 MOL      0.080835
     26 C12        -9.5290   -4.6010   -3.4870 c3        1 MOL      0.146926
     27 N3         -9.8540   -5.1290   -4.8330 n4        1 MOL     -0.300543
     28 H8         -7.0730   -1.8550   -0.6950 hn        1 MOL      0.107675
     29 H9         -6.6510   -4.1640    0.5590 h1        1 MOL      0.066857
     30 H10        -5.9830   -5.2210   -1.5710 hc        1 MOL      0.029483
     31 H11        -5.6160   -3.6500   -2.2190 hc        1 MOL      0.029483
     32 H12        -8.0240   -3.0980   -1.7390 hc        1 MOL      0.054191
     33 H13        -8.3410   -4.7720   -1.0760 hc        1 MOL      0.054191
     34 H14        -7.8150   -5.8170   -3.2210 hc        1 MOL     -0.008669
     35 H15        -7.4990   -4.3020   -3.9780 hc        1 MOL     -0.008669
     36 H16        -9.6560   -3.5160   -3.4400 hx        1 MOL      0.024769
     37 H17       -10.1520   -5.0430   -2.7190 hx        1 MOL      0.024769
     38 H18       -10.8090   -4.8960   -5.0910 hn        1 MOL      0.277320
     39 H19        -9.2360   -4.7400   -5.5150 hn        1 MOL      0.277320
     40 H20        -9.7160   -6.1310   -4.8420 hn        1 MOL      0.277320
     41 N4         -3.5880   -2.7850   -0.0010 n         1 MOL     -0.327375
     42 C13        -3.6890   -1.6520   -0.8160 c3        1 MOL      0.021136
     43 C14        -3.8480   -0.3290   -0.0070 c         1 MOL      0.101811
     44 O6         -3.7280   -0.3650    1.2390 o         1 MOL     -0.334164
     45 C15        -2.5180   -1.5980   -1.7500 c3        1 MOL     -0.152508
     46 C16        -1.2060   -1.8750   -0.9940 c         1 MOL      0.573344
     47 O7         -0.9710   -1.1180    0.0020 o         1 MOL     -0.624359
     48 O8         -0.3960   -2.7570   -1.4200 o         1 MOL     -0.624359
     49 H21        -2.6770   -2.9830    0.3790 hn        1 MOL      0.333337
     50 H22        -4.5590   -1.7850   -1.4520 h1        1 MOL      0.088728
     51 H23        -2.4900   -0.6070   -2.2090 hc        1 MOL      0.046755
     52 H24        -2.5980   -2.3230   -2.5590 hc        1 MOL      0.046755
     53 N5         -4.1870    0.7950   -0.6740 n         1 MOL     -0.291327
     54 C17        -4.1450    2.1400   -0.1190 c3        1 MOL     -0.093822
     55 C18        -2.8710    2.6630    0.5180 c         1 MOL      0.804777
     56 O9         -1.8490    2.0370    0.6390 o         1 MOL     -0.631448
     57 H25        -4.3110    0.6790   -1.6710 hn        1 MOL      0.284973
     58 H26        -4.9680    2.1560    0.5980 h1        1 MOL      0.070428
     59 H27        -4.5620    2.7320   -0.9380 h1        1 MOL      0.070428
     60 N6         -3.0560    3.8850    1.0120 n         1 MOL     -0.709166
     61 C19        -2.0730    4.6660    1.7900 c3        1 MOL      0.691520
     62 C20        -2.4570    6.1510    1.7630 c         1 MOL      0.330007
     63 O10        -3.6480    6.4610    1.5420 o         1 MOL     -0.520949
     64 C21        -2.2560    4.2840    3.2770 c3        1 MOL     -0.405105
     65 C22        -1.5680    2.9700    3.6940 c         1 MOL      0.669344
     66 O11        -1.9010    2.5010    4.8290 o         1 MOL     -0.668167
     67 O12        -0.5470    2.4290    3.1670 o         1 MOL     -0.668167
     68 H28        -4.0010    4.2210    1.1060 hn        1 MOL      0.292072
     69 H29        -1.0280    4.5170    1.5180 h1        1 MOL     -0.135277
     70 H30        -3.3250    4.1990    3.5090 hc        1 MOL      0.106921
     71 H31        -1.8390    4.9900    3.9890 hc        1 MOL      0.106921
     72 N7         -1.5030    7.0540    1.9550 n         1 MOL     -0.471971
     73 C23        -0.0480    6.8420    1.9840 c3        1 MOL      0.044586
     74 C24         0.6110    6.5630    0.6950 c         1 MOL      0.593641
     75 O13         0.0510    6.7820   -0.3770 o         1 MOL     -0.519343
     76 H32        -1.9410    7.9590    2.0790 hn        1 MOL      0.323371
     77 H33         0.1220    6.0190    2.6730 h1        1 MOL      0.056310
     78 H34         0.4870    7.6560    2.4610 h1        1 MOL      0.056310
     79 N8          1.7170    5.8530    0.8120 n         1 MOL     -0.652923
     80 C25         2.3580    5.1070   -0.3010 c3        1 MOL      0.116421
     81 C26         1.5220    3.9090   -0.7900 c         1 MOL      0.790138
     82 O14         0.8510    3.2740    0.0290 o         1 MOL     -0.631185
     83 C27         3.7920    4.7180    0.2190 c3        1 MOL      0.175683
     84 C28         4.5360    4.0420   -0.9710 c3        1 MOL     -0.206732
     85 O15         3.6880    3.7300    1.2740 oh        1 MOL     -0.582223
     86 H35         2.0210    5.6840    1.7610 hn        1 MOL      0.327213
     87 H36         2.4680    5.7330   -1.1880 h1        1 MOL      0.050285
     88 H37         4.3450    5.6440    0.3430 h1        1 MOL      0.059817
     89 H38         4.4860    3.8540    1.7970 ho        1 MOL      0.417391
     90 H39         4.4440    4.6480   -1.8770 hc        1 MOL      0.053492
     91 H40         5.5580    3.8610   -0.6550 hc        1 MOL      0.053492
     92 H41         4.0710    3.0680   -1.1480 hc        1 MOL      0.053492
     93 N9          1.6250    3.5880   -2.1080 n         1 MOL     -0.607545
     94 C29         1.0190    2.4440   -2.8360 c3        1 MOL      0.086888
     95 C30         1.4250    1.0570   -2.2730 c         1 MOL      0.116779
     96 O16         1.0130    0.5850   -1.2220 o         1 MOL     -0.345002
     97 C31        -0.4870    2.6500   -2.9750 c3        1 MOL      0.186424
     98 C32        -0.8440    3.9930   -3.5670 c3        1 MOL      0.055806
     99 C33        -1.0620    1.4760   -3.8600 c3        1 MOL     -0.291126
    100 C34        -2.2780    4.3990   -3.4870 c3        1 MOL     -0.247710
    101 H42         2.0550    4.2960   -2.6810 hn        1 MOL      0.287810
    102 H43         1.3050    2.3950   -3.8860 h1        1 MOL      0.054032
    103 H44        -0.8150    2.6120   -1.9310 hc        1 MOL      0.042063
    104 H45        -0.4230    3.9800   -4.5780 hc        1 MOL     -0.013547
    105 H46        -0.3360    4.8220   -3.0820 hc        1 MOL     -0.013547
    106 H47        -2.1430    1.4260   -3.7530 hc        1 MOL      0.070808
    107 H48        -0.8310    1.6810   -4.9000 hc        1 MOL      0.070808
    108 H49        -0.6670    0.5290   -3.4950 hc        1 MOL      0.070808
    109 H50        -2.3300    5.4190   -3.8700 hc        1 MOL      0.064557
    110 H51        -2.9410    3.8790   -4.1820 hc        1 MOL      0.064557
    111 H52        -2.5260    4.1220   -2.4650 hc        1 MOL      0.064557
    112 N10         2.4050    0.4860   -2.9640 n         1 MOL     -0.084564
    113 C35         2.8100   -0.9290   -2.7330 c3        1 MOL     -0.261006
    114 C36         4.3050   -1.0600   -2.9400 c         1 MOL      0.533120
    115 O17         4.7650   -2.1700   -3.1270 o         1 MOL     -0.533142
    116 C37         2.0460   -1.8630   -3.6940 c3        1 MOL      0.392547
    117 C38         2.4490   -1.6560   -5.1680 c3        1 MOL     -0.361043
    118 O18         0.6960   -1.5510   -3.5890 oh        1 MOL     -0.538865
    119 H53         2.8150    0.8350   -3.8190 hn        1 MOL      0.204554
    120 H54         2.6130   -1.1700   -1.6920 h1        1 MOL      0.150326
    121 H55         2.2700   -2.8750   -3.3660 h1        1 MOL      0.034024
    122 H56         0.3720   -1.9140   -2.7630 ho        1 MOL      0.297116
    123 H57         3.5080   -1.8120   -5.3680 hc        1 MOL      0.092068
    124 H58         1.9210   -2.3850   -5.7930 hc        1 MOL      0.092068
    125 H59         1.9950   -0.7410   -5.5370 hc        1 MOL      0.092068
    126 N11         5.0980    0.0210   -2.8040 n         1 MOL     -0.311159
    127 C39         6.5330    0.0460   -2.7880 c3        1 MOL      0.052446
    128 C40         7.0030   -0.3980   -1.4410 c         1 MOL      0.458165
    129 O19         7.1840    0.3490   -0.4440 o         1 MOL     -0.510236
    130 C41         7.1280    1.4050   -3.0750 c3        1 MOL      0.341901
    131 C42         8.6470    1.3670   -3.1100 c3        1 MOL     -0.301350
    132 O20         6.7580    1.6910   -4.4050 oh        1 MOL     -0.642648
    133 H60         4.5910    0.8930   -2.8110 hn        1 MOL      0.195223
    134 H61         6.9720   -0.5660   -3.5810 h1        1 MOL      0.090738
    135 H62         6.7570    2.1180   -2.3380 h1        1 MOL     -0.020853
    136 H63         7.1620    2.5120   -4.6970 ho        1 MOL      0.407079
    137 H64         9.0540    2.3350   -3.3920 hc        1 MOL      0.073764
    138 H65         9.1120    1.0460   -2.1720 hc        1 MOL      0.073764
    139 H66         8.9580    0.6810   -3.8940 hc        1 MOL      0.073764
    140 N12         6.9180   -1.7280   -1.2760 n         1 MOL     -0.708836
    141 C43         6.5970   -2.4160   -0.0290 c3        1 MOL      0.531213
    142 C44         5.2390   -2.1090    0.5210 c         1 MOL      0.388263
    143 O21         4.7370   -1.0100    0.3340 o         1 MOL     -0.444616
    144 C45         7.6590   -2.2050    1.0060 c3        1 MOL     -0.224113
    145 C46         9.1070   -2.3860    0.5960 c3        1 MOL      0.047390
    146 C47        10.0040   -2.7500    1.8010 c3        1 MOL      0.047402
    147 C48        11.5100   -3.0250    1.4750 c3        1 MOL     -0.091015
    148 N13        12.2880   -1.8090    1.1730 n4        1 MOL     -0.094076
    149 H67         6.7070   -2.1870   -2.1490 hn        1 MOL      0.319521
    150 H68         6.6150   -3.4980   -0.1580 h1        1 MOL     -0.045139
    151 H69         7.4240   -2.9380    1.7770 hc        1 MOL      0.061272
    152 H70         7.5640   -1.2070    1.4410 hc        1 MOL      0.061272
    153 H71         9.5520   -1.5340    0.0810 hc        1 MOL      0.002807
    154 H72         9.1880   -3.2150   -0.1030 hc        1 MOL      0.002807
    155 H73         9.5460   -3.6820    2.1050 hc        1 MOL      0.028011
    156 H74         9.8370   -2.1500    2.6960 hc        1 MOL      0.028011
    157 H75        11.4970   -3.7180    0.6330 hx        1 MOL      0.094545
    158 H76        11.9890   -3.4460    2.3520 hx        1 MOL      0.094545
    159 H77        12.0110   -1.0470    1.7790 hn        1 MOL      0.202835
    160 H78        13.2750   -1.9870    1.1620 hn        1 MOL      0.202835
    161 H79        12.0280   -1.4140    0.2820 hn        1 MOL      0.202835
    162 N14         4.7370   -3.0040    1.3480 n         1 MOL     -0.586714
    163 C49         3.3860   -2.8250    2.0780 c3        1 MOL      0.064285
    164 C50         2.1340   -2.6100    1.2310 c         1 MOL      0.577971
    165 O22         1.3620   -1.6620    1.4220 o         1 MOL     -0.718435
    166 C51         3.1700   -3.9280    3.0880 c3        1 MOL      0.013842
    167 C52         4.2970   -4.0790    4.1340 c3        1 MOL     -0.201244
    168 C53         4.0490   -5.3230    4.9860 c         1 MOL      0.709213
    169 O23         3.8700   -5.2190    6.2100 o         1 MOL     -0.649062
    170 O24         4.2080   -6.4600    4.4410 o         1 MOL     -0.649062
    171 H80         5.4080   -3.7370    1.4850 hn        1 MOL      0.364567
    172 H81         3.4200   -1.8920    2.6510 h1        1 MOL      0.117056
    173 H82         3.1690   -4.8470    2.5030 hc        1 MOL      0.037116
    174 H83         2.2210   -3.8560    3.6100 hc        1 MOL      0.037116
    175 H84         4.2580   -3.2440    4.8270 hc        1 MOL      0.019286
    176 H85         5.3090   -4.1910    3.7250 hc        1 MOL      0.019286
    177 N15         1.7890   -3.3930    0.2060 n         1 MOL     -0.291468
    178 C54         2.2470   -4.7810   -0.1380 c3        1 MOL     -0.133366
    179 H86         1.6510   -5.5080    0.4140 h1        1 MOL      0.063321
    180 H87         2.1240   -4.9500   -1.2080 h1        1 MOL      0.063321
    181 H88         3.2980   -4.8950    0.1310 h1        1 MOL      0.063321
    182 H89         0.9950   -3.0010   -0.2820 hn        1 MOL      0.357133
    183 Ca1         0.4030    0.8490    1.3970 Ca        1 MOL      1.785448
    184 O25         1.4580    0.5460    3.9110 oh        1 MOL     -0.859899
    185 H90         0.5960    0.6900    4.3070 ho        1 MOL      0.411305
    186 H91         1.8240   -0.2020    4.3970 ho        1 MOL      0.411305
    187 O26         3.0690    1.1510    0.8880 oh        1 MOL     -0.859899
    188 H92         3.5050    1.9620    1.1540 ho        1 MOL      0.411305
    189 H93         3.7260    0.6810    0.3690 ho        1 MOL      0.411305
    190 O27        -1.6790   -0.0520    2.9090 oh        1 MOL     -0.859899
    191 H94        -1.8240   -0.2480    3.8380 ho        1 MOL      0.411305
    192 H95        -2.5190   -0.2180    2.4890 ho        1 MOL      0.411305
@<TRIPOS>BOND
     1    1    2 1   
     2    1    4 1   
     3    1    5 1   
     4    1    6 1   
     5    2    3 2   
     6    2    7 1   
     7    7    8 1   
     8    7   15 1   
     9    8    9 1   
    10    8   11 1   
    11    8   16 1   
    12    9   10 2   
    13    9   19 1   
    14   11   12 1   
    15   11   17 1   
    16   11   18 1   
    17   12   13 1   
    18   12   14 1   
    19   19   20 1   
    20   19   28 1   
    21   20   21 1   
    22   20   23 1   
    23   20   29 1   
    24   21   22 2   
    25   21   41 1   
    26   23   24 1   
    27   23   30 1   
    28   23   31 1   
    29   24   25 1   
    30   24   32 1   
    31   24   33 1   
    32   25   26 1   
    33   25   34 1   
    34   25   35 1   
    35   26   27 1   
    36   26   36 1   
    37   26   37 1   
    38   27   38 1   
    39   27   39 1   
    40   27   40 1   
    41   41   42 1   
    42   41   49 1   
    43   42   43 1   
    44   42   45 1   
    45   42   50 1   
    46   43   44 2   
    47   43   53 1   
    48   45   46 1   
    49   45   51 1   
    50   45   52 1   
    51   46   47 1   
    52   46   48 1   
    53   53   54 1   
    54   53   57 1   
    55   54   55 1   
    56   54   58 1   
    57   54   59 1   
    58   55   56 2   
    59   55   60 1   
    60   60   61 1   
    61   60   68 1   
    62   61   62 1   
    63   61   64 1   
    64   61   69 1   
    65   62   63 2   
    66   62   72 1   
    67   64   65 1   
    68   64   70 1   
    69   64   71 1   
    70   65   66 1   
    71   65   67 1   
    72   72   73 1   
    73   72   76 1   
    74   73   74 1   
    75   73   77 1   
    76   73   78 1   
    77   74   75 2   
    78   74   79 1   
    79   79   80 1   
    80   79   86 1   
    81   80   81 1   
    82   80   83 1   
    83   80   87 1   
    84   81   82 2   
    85   81   93 1   
    86   83   84 1   
    87   83   85 1   
    88   83   88 1   
    89   84   90 1   
    90   84   91 1   
    91   84   92 1   
    92   85   89 1   
    93   93   94 1   
    94   93  101 1   
    95   94   95 1   
    96   94   97 1   
    97   94  102 1   
    98   95   96 2   
    99   95  112 1   
   100   97   98 1   
   101   97   99 1   
   102   97  103 1   
   103   98  100 1   
   104   98  104 1   
   105   98  105 1   
   106   99  106 1   
   107   99  107 1   
   108   99  108 1   
   109  100  109 1   
   110  100  110 1   
   111  100  111 1   
   112  112  113 1   
   113  112  119 1   
   114  113  114 1   
   115  113  116 1   
   116  113  120 1   
   117  114  115 2   
   118  114  126 1   
   119  116  117 1   
   120  116  118 1   
   121  116  121 1   
   122  117  123 1   
   123  117  124 1   
   124  117  125 1   
   125  118  122 1   
   126  126  127 1   
   127  126  133 1   
   128  127  128 1   
   129  127  130 1   
   130  127  134 1   
   131  128  129 2   
   132  128  140 1   
   133  130  131 1   
   134  130  132 1   
   135  130  135 1   
   136  131  137 1   
   137  131  138 1   
   138  131  139 1   
   139  132  136 1   
   140  140  141 1   
   141  140  149 1   
   142  141  142 1   
   143  141  144 1   
   144  141  150 1   
   145  142  143 2   
   146  142  162 1   
   147  144  145 1   
   148  144  151 1   
   149  144  152 1   
   150  145  146 1   
   151  145  153 1   
   152  145  154 1   
   153  146  147 1   
   154  146  155 1   
   155  146  156 1   
   156  147  148 1   
   157  147  157 1   
   158  147  158 1   
   159  148  159 1   
   160  148  160 1   
   161  148  161 1   
   162  162  163 1   
   163  162  171 1   
   164  163  164 1   
   165  163  166 1   
   166  163  172 1   
   167  164  165 2   
   168  164  177 1   
   169  166  167 1   
   170  166  173 1   
   171  166  174 1   
   172  167  168 1   
   173  167  175 1   
   174  167  176 1   
   175  168  169 1   
   176  168  170 1   
   177  177  178 1   
   178  177  182 1   
   179  178  179 1   
   180  178  180 1   
   181  178  181 1   
   182  184  185 1   
   183  184  186 1   
   184  187  188 1   
   185  187  189 1   
   186  190  191 1   
   187  190  192 1   
@<TRIPOS>SUBSTRUCTURE
     1 MOL         1 TEMP              0 ****  ****    0 ROOT
