@<TRIPOS>MOLECULE
MOL
  189   185     1     0     0
SMALL
resp


@<TRIPOS>ATOM
      1 C1          4.1170    3.2760   -3.6030 c3        1 MOL     -0.474903
      2 C2          5.0960    2.8440   -2.5170 c         1 MOL      0.781855
      3 O1          4.7390    2.7870   -1.3290 o         1 MOL     -0.620279
      4 H1          3.1060    2.9890   -3.3130 hc        1 MOL      0.118483
      5 H2          4.1650    4.3570   -3.7280 hc        1 MOL      0.118483
      6 H3          4.3770    2.7880   -4.5420 hc        1 MOL      0.118483
      7 N1          6.2490    2.3560   -2.9370 n         1 MOL     -0.649043
      8 C3          7.0910    1.3760   -2.2470 c3        1 MOL      0.357020
      9 C4          6.2510    0.2020   -1.7410 c         1 MOL      0.253324
     10 O2          5.9250    0.0610   -0.5980 o         1 MOL     -0.330211
     11 C5          8.0050    1.9480   -1.1310 c3        1 MOL     -0.330792
     12 C6          7.5940    3.1640   -0.2950 c         1 MOL      0.787268
     13 O3          6.9180    2.8970    0.7210 o         1 MOL     -0.730914
     14 O4          7.8140    4.3320   -0.5700 o         1 MOL     -0.730914
     15 H4          6.4960    2.5260   -3.9050 hn        1 MOL      0.311729
     16 H5          7.7710    0.9950   -2.9970 h1        1 MOL      0.003547
     17 H6          9.0150    2.2120   -1.4620 hc        1 MOL      0.058972
     18 H7          8.1300    1.1240   -0.4280 hc        1 MOL      0.058972
     19 N2          5.8580   -0.6060   -2.7300 n         1 MOL     -0.489390
     20 C7          5.0690   -1.8170   -2.6690 c3        1 MOL      0.165863
     21 C8          5.6200   -2.9300   -1.8230 c         1 MOL      0.393981
     22 O5          5.8680   -3.9970   -2.3720 o         1 MOL     -0.566395
     23 C9          3.5930   -1.5830   -2.2700 c3        1 MOL      0.354285
     24 C10         2.6650   -2.8280   -2.5210 c3        1 MOL      0.033856
     25 C11         2.9640   -0.3040   -2.8980 c3        1 MOL     -0.193141
     26 C12         2.7970   -3.5950   -3.7990 c3        1 MOL     -0.378742
     27 H8          5.8920   -0.1590   -3.6390 hn        1 MOL      0.263246
     28 H9          5.1140   -2.1750   -3.6970 h1        1 MOL     -0.017235
     29 H10         3.4540   -1.4120   -1.2080 hc        1 MOL      0.027294
     30 H11         1.6240   -2.5390   -2.4450 hc        1 MOL      0.039828
     31 H12         2.9520   -3.5780   -1.7920 hc        1 MOL      0.039828
     32 H13         3.3290    0.6130   -2.4350 hc        1 MOL      0.004711
     33 H14         3.1170   -0.4760   -3.9640 hc        1 MOL      0.004711
     34 H15         1.8840   -0.3210   -2.7200 hc        1 MOL      0.004711
     35 H16         2.8060   -2.8510   -4.5980 hc        1 MOL      0.076599
     36 H17         3.7140   -4.1900   -3.7360 hc        1 MOL      0.076599
     37 H18         2.0080   -4.3280   -3.9930 hc        1 MOL      0.076599
     38 N3          5.8500   -2.7720   -0.5050 n         1 MOL     -0.098440
     39 C13         6.5690   -3.7540    0.3720 c3        1 MOL     -0.169607
     40 C14         5.7080   -4.8190    1.0790 c         1 MOL      0.641376
     41 O6          6.1930   -5.9230    1.2460 o         1 MOL     -0.602844
     42 C15         7.3040   -3.0150    1.5380 c3        1 MOL     -0.306490
     43 C16         8.4460   -2.0750    1.1910 c         1 MOL      0.794492
     44 O7          9.3360   -2.3450    0.2980 o         1 MOL     -0.725026
     45 O8          8.6140   -1.0070    1.7970 o         1 MOL     -0.725026
     46 H19         5.6260   -1.8680   -0.1330 hn        1 MOL      0.210998
     47 H20         7.3110   -4.3330   -0.1880 h1        1 MOL      0.125099
     48 H21         7.7980   -3.8350    2.0600 hc        1 MOL      0.086728
     49 H22         6.5890   -2.4670    2.1510 hc        1 MOL      0.086728
     50 N4          4.5050   -4.6810    1.5770 n         1 MOL     -0.551079
     51 C17         3.5600   -3.5110    1.4350 c3        1 MOL      0.057242
     52 C18         2.3690   -3.6700    2.3290 c         1 MOL      0.582708
     53 O9          1.8920   -4.7870    2.4720 o         1 MOL     -0.578644
     54 H23         4.1380   -5.3960    2.1820 hn        1 MOL      0.307200
     55 H24         3.2900   -3.4690    0.3800 h1        1 MOL      0.074446
     56 H25         4.1110   -2.6130    1.7070 h1        1 MOL      0.074446
     57 N5          1.8470   -2.6240    3.0110 n         1 MOL     -0.492760
     58 C19         2.2710   -1.1880    2.9780 c3        1 MOL      0.360023
     59 C20         2.3010   -0.6500    1.5510 c         1 MOL     -0.033857
     60 O10         3.3710   -0.4510    0.9620 o         1 MOL     -0.677247
     61 C21         3.5040   -1.1270    3.8870 c3        1 MOL     -0.455257
     62 C22         3.8390    0.3140    4.2040 c         1 MOL      0.757067
     63 O11         4.7100    0.4760    5.0830 o         1 MOL     -0.692077
     64 O12         3.4100    1.2030    3.4840 o         1 MOL     -0.692077
     65 H26         1.0270   -2.8820    3.5350 hn        1 MOL      0.257749
     66 H27         1.5420   -0.6290    3.5660 h1        1 MOL      0.090997
     67 H28         4.3980   -1.5390    3.4210 hc        1 MOL      0.116104
     68 H29         3.2780   -1.6790    4.8020 hc        1 MOL      0.116104
     69 N6          1.1800   -0.4900    0.8610 n         1 MOL     -0.117635
     70 C23        -0.1600   -0.9680    1.1870 c3        1 MOL     -0.075754
     71 C24        -0.3500   -2.4080    0.6830 c         1 MOL      0.431860
     72 O13         0.4900   -2.8530   -0.1070 o         1 MOL     -0.476047
     73 H30         1.3140   -0.2290   -0.1100 hn        1 MOL      0.280540
     74 H31        -0.7930   -0.3090    0.5890 h1        1 MOL      0.081878
     75 H32        -0.4970   -0.7920    2.2070 h1        1 MOL      0.081878
     76 N7         -1.4870   -3.0100    1.0550 n         1 MOL     -0.354972
     77 C25        -1.8370   -4.3060    0.5470 c3        1 MOL     -0.167992
     78 C26        -2.3130   -4.2820   -0.8780 c         1 MOL      0.439708
     79 O14        -2.5020   -5.3680   -1.5250 o         1 MOL     -0.521030
     80 C27        -3.0830   -4.8430    1.3060 c3        1 MOL      0.025188
     81 C28        -4.2970   -3.9690    1.2890 c3        1 MOL      0.093466
     82 C29        -5.4390   -4.6180    2.0560 c         1 MOL      0.532146
     83 N8         -6.2430   -5.4100    1.3500 n         1 MOL     -0.762266
     84 O15        -5.4900   -4.5400    3.2690 o         1 MOL     -0.561167
     85 H33        -2.0640   -2.5370    1.7290 hn        1 MOL      0.282079
     86 H34        -0.9580   -4.9430    0.5670 h1        1 MOL      0.178454
     87 H35        -2.8500   -5.1290    2.3290 hc        1 MOL      0.039668
     88 H36        -3.2180   -5.7870    0.7790 hc        1 MOL      0.039668
     89 H37        -4.6220   -3.8170    0.2670 hc        1 MOL     -0.047448
     90 H38        -4.0590   -3.0300    1.7920 hc        1 MOL     -0.047448
     91 H39        -6.2760   -5.4560    0.3440 hn        1 MOL      0.351815
     92 H40        -6.9110   -5.9300    1.9100 hn        1 MOL      0.351815
     93 N9         -2.5890   -3.0780   -1.4420 n         1 MOL     -0.069946
     94 C30        -2.8810   -2.8210   -2.8540 c3        1 MOL     -0.192341
     95 C31        -4.2710   -2.1890   -3.1820 c         1 MOL      0.578244
     96 O16        -4.7470   -2.2230   -4.3130 o         1 MOL     -0.523315
     97 C32        -1.8640   -1.9240   -3.5380 c3        1 MOL      0.034208
     98 C33        -0.6750   -2.8420   -3.9460 c3        1 MOL     -0.121143
     99 C34        -1.3360   -0.7660   -2.6380 c3        1 MOL     -0.121143
    100 H41        -2.5900   -2.3170   -0.7720 hn        1 MOL      0.102332
    101 H42        -2.7060   -3.7830   -3.3290 h1        1 MOL      0.130161
    102 H43        -2.2060   -1.3850   -4.4200 hc        1 MOL      0.054637
    103 H44        -0.2690   -3.2350   -3.0120 hc        1 MOL      0.032087
    104 H45        -0.9460   -3.6400   -4.6230 hc        1 MOL      0.032087
    105 H46         0.1880   -2.3880   -4.4520 hc        1 MOL      0.032087
    106 H47        -0.9880    0.0780   -3.2460 hc        1 MOL      0.032087
    107 H48        -2.2120   -0.4660   -2.0540 hc        1 MOL      0.032087
    108 H49        -0.5740   -1.1620   -1.9750 hc        1 MOL      0.032087
    109 N10        -4.9350   -1.5710   -2.1150 n         1 MOL     -0.450020
    110 C35        -6.3730   -1.1290   -2.1710 c3        1 MOL     -0.014165
    111 C36        -6.7770    0.1650   -1.5350 c         1 MOL      0.533552
    112 O17        -7.9600    0.5530   -1.6180 o         1 MOL     -0.551055
    113 C37        -7.1870   -2.2380   -1.4430 c3        1 MOL     -0.224859
    114 C38        -7.0780   -3.6310   -2.0500 c         1 MOL      0.566067
    115 N11        -7.4670   -3.7900   -3.2520 n         1 MOL     -0.704557
    116 O18        -6.5480   -4.6360   -1.5060 o         1 MOL     -0.535821
    117 H50        -4.4140   -1.4170   -1.2630 hn        1 MOL      0.335059
    118 H51        -6.6190   -1.1230   -3.2350 h1        1 MOL      0.101097
    119 H52        -8.2470   -2.0130   -1.4130 hc        1 MOL      0.096069
    120 H53        -6.7130   -2.2260   -0.4630 hc        1 MOL      0.096069
    121 H54        -7.5560   -3.0540   -3.9340 hn        1 MOL      0.356061
    122 H55        -7.4330   -4.7290   -3.6340 hn        1 MOL      0.356061
    123 N12        -5.8870    0.9570   -0.9390 n         1 MOL     -0.464280
    124 C39        -6.1400    2.1840   -0.2490 c3        1 MOL      0.419749
    125 C40        -4.8920    3.0740   -0.2440 c         1 MOL      0.152303
    126 O19        -3.7540    2.5750   -0.3380 o         1 MOL     -0.369533
    127 C41        -6.4750    1.8060    1.2790 c3        1 MOL     -0.246054
    128 C42        -7.4550    0.6860    1.6460 ca        1 MOL     -0.016841
    129 C43        -8.8500    0.9710    1.7020 ca        1 MOL     -0.060006
    130 C44        -7.0550   -0.6820    1.8210 ca        1 MOL     -0.060006
    131 C45        -9.7900   -0.0460    2.0010 ca        1 MOL     -0.312091
    132 C46        -8.0160   -1.6490    2.1370 ca        1 MOL     -0.312091
    133 C47        -9.3920   -1.3670    2.1320 ca        1 MOL      0.419883
    134 O20       -10.2640   -2.3790    2.3090 oh        1 MOL     -0.541604
    135 H56        -4.9410    0.6560   -0.8070 hn        1 MOL      0.212073
    136 H57        -7.0190    2.6350   -0.6960 h1        1 MOL     -0.001782
    137 H58        -6.9620    2.6740    1.7220 hc        1 MOL      0.085787
    138 H59        -5.4970    1.5370    1.6840 hc        1 MOL      0.085787
    139 H60        -9.3010    1.9380    1.5140 ha        1 MOL      0.122445
    140 H61        -5.9960   -0.8790    1.7790 ha        1 MOL      0.122445
    141 H62       -10.8370    0.2060    2.0150 ha        1 MOL      0.146300
    142 H63        -7.7660   -2.6940    2.2410 ha        1 MOL      0.146300
    143 H64        -9.7930   -3.2010    2.4510 ho        1 MOL      0.381560
    144 N13        -5.1570    4.3520    0.0130 n         1 MOL     -0.403645
    145 C48        -4.3120    5.4160    0.5350 c3        1 MOL      0.069330
    146 C49        -2.9530    5.5780   -0.0190 c         1 MOL      0.348943
    147 O21        -2.2690    6.5890    0.2230 o         1 MOL     -0.522252
    148 C50        -4.4530    5.5360    2.0820 c3        1 MOL      0.137285
    149 C51        -3.8370    4.3950    2.8540 c3        1 MOL     -0.249924
    150 C52        -4.0820    4.6270    4.3690 c         1 MOL      0.683079
    151 O22        -5.0910    4.1120    4.9270 o         1 MOL     -0.724141
    152 O23        -3.3570    5.3800    5.0700 o         1 MOL     -0.724141
    153 H65        -6.1530    4.4880   -0.0190 hn        1 MOL      0.288029
    154 H66        -4.6940    6.3780    0.1790 h1        1 MOL      0.033564
    155 H67        -5.5270    5.4970    2.2850 hc        1 MOL     -0.006476
    156 H68        -4.1170    6.5390    2.3460 hc        1 MOL     -0.006476
    157 H69        -2.7510    4.3810    2.7040 hc        1 MOL      0.064709
    158 H70        -4.3190    3.4360    2.6590 hc        1 MOL      0.064709
    159 N14        -2.2770    4.6550   -0.7100 n         1 MOL      0.043736
    160 C53        -1.0970    4.8570   -1.5550 c3        1 MOL     -0.421255
    161 C54        -1.3680    5.7180   -2.8090 c         1 MOL      0.573068
    162 O24        -0.4600    6.3000   -3.4280 o         1 MOL     -0.537129
    163 C55        -0.4990    3.4580   -1.8760 c3        1 MOL     -0.118410
    164 C56         0.0270    2.6030   -0.6850 c3        1 MOL      0.307155
    165 C57         1.2410    3.2430    0.0270 c         1 MOL      0.632411
    166 O25         2.1530    2.5050    0.4630 o         1 MOL     -0.644924
    167 O26         1.2940    4.4560    0.2000 o         1 MOL     -0.644924
    168 H71        -2.7000    3.7380   -0.7410 hn        1 MOL      0.126763
    169 H72        -0.3610    5.4110   -0.9630 h1        1 MOL      0.220127
    170 H73         0.4050    3.4890   -2.4810 hc        1 MOL      0.044379
    171 H74        -1.2200    2.8650   -2.4320 hc        1 MOL      0.044379
    172 H75         0.3010    1.6200   -1.0700 hc        1 MOL     -0.141545
    173 H76        -0.7140    2.3360    0.0610 hc        1 MOL     -0.141545
    174 N15        -2.6440    5.6960   -3.1960 n         1 MOL     -0.239720
    175 C58        -3.2050    6.5120   -4.2200 c3        1 MOL     -0.358461
    176 H77        -4.2920    6.4370   -4.1890 h1        1 MOL      0.125440
    177 H78        -2.9080    7.5500   -4.0630 h1        1 MOL      0.125440
    178 H79        -2.8450    6.1740   -5.1930 h1        1 MOL      0.125440
    179 H80        -3.2570    5.2220   -2.5370 hn        1 MOL      0.213215
    180 Ca1         4.5780    1.8420    1.2360 Ca        1 MOL      1.797032
    181 O27         6.4950    0.5600    2.5970 oh        1 MOL     -0.865207
    182 H81         6.5640    0.5190    3.5480 ho        1 MOL      0.407078
    183 H82         7.2490    0.0650    2.2790 ho        1 MOL      0.407078
    184 O28         5.2390    3.4940    3.3830 oh        1 MOL     -0.865207
    185 H83         5.7630    4.2460    3.1230 ho        1 MOL      0.407078
    186 H84         5.0670    3.6310    4.3180 ho        1 MOL      0.407078
    187 O29         4.0760    4.7290    0.7500 oh        1 MOL     -0.865207
    188 H85         3.1490    4.5970    0.5480 ho        1 MOL      0.407078
    189 H86         4.4040    5.2630    0.0360 ho        1 MOL      0.407078
@<TRIPOS>BOND
     1    1    2 1   
     2    1    4 1   
     3    1    5 1   
     4    1    6 1   
     5    2    3 2   
     6    2    7 1   
     7    7    8 1   
     8    7   15 1   
     9    8    9 1   
    10    8   11 1   
    11    8   16 1   
    12    9   10 2   
    13    9   19 1   
    14   11   12 1   
    15   11   17 1   
    16   11   18 1   
    17   12   13 1   
    18   12   14 1   
    19   19   20 1   
    20   19   27 1   
    21   20   21 1   
    22   20   23 1   
    23   20   28 1   
    24   21   22 2   
    25   21   38 1   
    26   23   24 1   
    27   23   25 1   
    28   23   29 1   
    29   24   26 1   
    30   24   30 1   
    31   24   31 1   
    32   25   32 1   
    33   25   33 1   
    34   25   34 1   
    35   26   35 1   
    36   26   36 1   
    37   26   37 1   
    38   38   39 1   
    39   38   46 1   
    40   39   40 1   
    41   39   42 1   
    42   39   47 1   
    43   40   41 2   
    44   40   50 1   
    45   42   43 1   
    46   42   48 1   
    47   42   49 1   
    48   43   44 1   
    49   43   45 1   
    50   50   51 1   
    51   50   54 1   
    52   51   52 1   
    53   51   55 1   
    54   51   56 1   
    55   52   53 2   
    56   52   57 1   
    57   57   58 1   
    58   57   65 1   
    59   58   59 1   
    60   58   61 1   
    61   58   66 1   
    62   59   60 2   
    63   59   69 1   
    64   61   62 1   
    65   61   67 1   
    66   61   68 1   
    67   62   63 1   
    68   62   64 1   
    69   69   70 1   
    70   69   73 1   
    71   70   71 1   
    72   70   74 1   
    73   70   75 1   
    74   71   72 2   
    75   71   76 1   
    76   76   77 1   
    77   76   85 1   
    78   77   78 1   
    79   77   80 1   
    80   77   86 1   
    81   78   79 2   
    82   78   93 1   
    83   80   81 1   
    84   80   87 1   
    85   80   88 1   
    86   81   82 1   
    87   81   89 1   
    88   81   90 1   
    89   82   83 1   
    90   82   84 2   
    91   83   91 1   
    92   83   92 1   
    93   93   94 1   
    94   93  100 1   
    95   94   95 1   
    96   94   97 1   
    97   94  101 1   
    98   95   96 2   
    99   95  109 1   
   100   97   98 1   
   101   97   99 1   
   102   97  102 1   
   103   98  103 1   
   104   98  104 1   
   105   98  105 1   
   106   99  106 1   
   107   99  107 1   
   108   99  108 1   
   109  109  110 1   
   110  109  117 1   
   111  110  111 1   
   112  110  113 1   
   113  110  118 1   
   114  111  112 2   
   115  111  123 1   
   116  113  114 1   
   117  113  119 1   
   118  113  120 1   
   119  114  115 1   
   120  114  116 2   
   121  115  121 1   
   122  115  122 1   
   123  123  124 1   
   124  123  135 1   
   125  124  125 1   
   126  124  127 1   
   127  124  136 1   
   128  125  126 2   
   129  125  144 1   
   130  127  128 1   
   131  127  137 1   
   132  127  138 1   
   133  128  129 ar  
   134  128  130 ar  
   135  129  131 ar  
   136  129  139 1   
   137  130  132 ar  
   138  130  140 1   
   139  131  133 ar  
   140  131  141 1   
   141  132  133 ar  
   142  132  142 1   
   143  133  134 1   
   144  134  143 1   
   145  144  145 1   
   146  144  153 1   
   147  145  146 1   
   148  145  148 1   
   149  145  154 1   
   150  146  147 2   
   151  146  159 1   
   152  148  149 1   
   153  148  155 1   
   154  148  156 1   
   155  149  150 1   
   156  149  157 1   
   157  149  158 1   
   158  150  151 1   
   159  150  152 1   
   160  159  160 1   
   161  159  168 1   
   162  160  161 1   
   163  160  163 1   
   164  160  169 1   
   165  161  162 2   
   166  161  174 1   
   167  163  164 1   
   168  163  170 1   
   169  163  171 1   
   170  164  165 1   
   171  164  172 1   
   172  164  173 1   
   173  165  166 1   
   174  165  167 1   
   175  174  175 1   
   176  174  179 1   
   177  175  176 1   
   178  175  177 1   
   179  175  178 1   
   180  181  182 1   
   181  181  183 1   
   182  184  185 1   
   183  184  186 1   
   184  187  188 1   
   185  187  189 1   
@<TRIPOS>SUBSTRUCTURE
     1 MOL         1 TEMP              0 ****  ****    0 ROOT
