@<TRIPOS>MOLECULE
MOL
  192   187     1     0     0
SMALL
resp


@<TRIPOS>ATOM
      1 C1          1.2900    8.3890   -0.9600 c3        1 MOL     -0.320528
      2 C2          1.4770    6.8720   -1.0600 c         1 MOL      0.672368
      3 O1          1.9310    6.3730   -2.1020 o         1 MOL     -0.576407
      4 H1          1.1030    8.7980   -1.9530 hc        1 MOL      0.083001
      5 H2          0.4430    8.6090   -0.3110 hc        1 MOL      0.083001
      6 H3          2.1920    8.8410   -0.5460 hc        1 MOL      0.083001
      7 N1          1.0620    6.0660   -0.0660 n         1 MOL     -0.483016
      8 C3          1.3320    4.6200    0.1080 c3        1 MOL      0.006338
      9 C4          0.0250    3.7780    0.2820 c         1 MOL      0.600935
     10 O2          0.0400    2.6520    0.7400 o         1 MOL     -0.532559
     11 C5          2.3440    4.3650    1.2870 c3        1 MOL     -0.214609
     12 C6          1.7960    4.8650    2.6730 c         1 MOL      0.670055
     13 O3          0.9470    5.7920    2.7800 o         1 MOL     -0.684737
     14 O4          2.3230    4.3910    3.7410 o         1 MOL     -0.684737
     15 H4          0.5270    6.5230    0.6600 hn        1 MOL      0.257021
     16 H5          1.7720    4.1490   -0.7690 h1        1 MOL      0.116991
     17 H6          3.3120    4.8650    1.1760 hc        1 MOL      0.067249
     18 H7          2.6490    3.3200    1.2500 hc        1 MOL      0.067249
     19 N2         -1.0950    4.4680    0.0460 n         1 MOL     -0.469322
     20 C7         -2.4430    3.9360    0.2120 c3        1 MOL      0.247550
     21 C8         -2.9740    3.2110   -1.0670 c         1 MOL      0.426663
     22 O5         -2.8900    3.7910   -2.1400 o         1 MOL     -0.534838
     23 C9         -3.3700    4.9990    0.7680 c3        1 MOL     -0.237502
     24 C10        -2.8690    5.7400    1.9680 c3        1 MOL      0.020732
     25 C11        -2.6440    4.7320    3.1470 c3        1 MOL     -0.015077
     26 C12        -2.3890    5.3380    4.4930 c3        1 MOL     -0.117613
     27 N3         -1.0710    6.1110    4.5240 n4        1 MOL     -0.168761
     28 H8         -0.9560    5.4410   -0.2090 hn        1 MOL      0.248097
     29 H9         -2.3510    3.0990    0.9130 h1        1 MOL     -0.041029
     30 H10        -4.3110    4.4860    0.9740 hc        1 MOL      0.087914
     31 H11        -3.5390    5.7040   -0.0530 hc        1 MOL      0.087914
     32 H12        -3.5980    6.5220    2.1780 hc        1 MOL      0.000146
     33 H13        -1.9100    6.2110    1.7550 hc        1 MOL      0.000146
     34 H14        -1.7920    4.1080    2.8670 hc        1 MOL      0.090601
     35 H15        -3.5620    4.1630    3.2480 hc        1 MOL      0.090601
     36 H16        -2.2360    4.4940    5.1610 hx        1 MOL      0.094634
     37 H17        -3.2990    5.8020    4.8860 hx        1 MOL      0.094634
     38 H18        -1.2310    7.0020    4.0830 hn        1 MOL      0.258816
     39 H19        -0.7790    6.4260    5.4290 hn        1 MOL      0.258816
     40 H20        -0.2780    5.6520    4.0920 hn        1 MOL      0.258816
     41 N4         -3.4800    1.9720   -1.0240 n         1 MOL     -0.443203
     42 C13        -3.6570    1.0970    0.1500 c3        1 MOL      0.232599
     43 C14        -4.4010    1.6010    1.4040 c         1 MOL      0.459045
     44 O6         -3.8700    1.6630    2.5370 o         1 MOL     -0.630002
     45 C15        -2.4810    0.1570    0.4000 c3        1 MOL      0.180107
     46 C16        -1.9630   -0.5480   -0.7530 c         1 MOL      0.764773
     47 O7         -2.7310   -1.1030   -1.5610 o         1 MOL     -0.782720
     48 O8         -0.7440   -0.6060   -0.9700 o         1 MOL     -0.782720
     49 H21        -3.6580    1.5070   -1.9020 hn        1 MOL      0.340213
     50 H22        -4.4670    0.4660   -0.2330 h1        1 MOL     -0.078085
     51 H23        -2.8400   -0.6170    1.0860 hc        1 MOL     -0.033314
     52 H24        -1.7320    0.7260    0.9490 hc        1 MOL     -0.033314
     53 N5         -5.6110    2.0120    1.3560 n         1 MOL     -0.332958
     54 C17        -6.5260    2.2460    0.1810 c3        1 MOL     -0.142795
     55 C18        -7.9550    1.6810    0.5330 c         1 MOL      0.613425
     56 O9         -8.3540    1.6340    1.6850 o         1 MOL     -0.572365
     57 H25        -5.9610    2.2200    2.2850 hn        1 MOL      0.292512
     58 H26        -6.1740    1.7000   -0.6920 h1        1 MOL      0.095013
     59 H27        -6.6850    3.2730   -0.1570 h1        1 MOL      0.095013
     60 N6         -8.7110    1.0880   -0.3790 n         1 MOL     -0.454080
     61 C19        -8.4380    1.0140   -1.8070 c3        1 MOL     -0.093155
     62 C20        -7.4600   -0.1190   -2.3190 c         1 MOL      0.430061
     63 O10        -7.1160   -0.1610   -3.5140 o         1 MOL     -0.539195
     64 C21        -9.8070    0.9820   -2.5510 c3        1 MOL     -0.192641
     65 C22       -10.5750    2.2650   -2.4050 c         1 MOL      0.729959
     66 O11       -11.7850    2.2030   -2.0620 o         1 MOL     -0.648146
     67 O12        -9.9890    3.3310   -2.7360 o         1 MOL     -0.648146
     68 H28        -9.6240    0.7370   -0.1370 hn        1 MOL      0.323436
     69 H29        -7.8920    1.9080   -2.1020 h1        1 MOL      0.123806
     70 H30       -10.3450    0.1210   -2.1370 hc        1 MOL      0.055759
     71 H31        -9.7310    0.7760   -3.6220 hc        1 MOL      0.055759
     72 N7         -6.8940   -0.9170   -1.4840 n         1 MOL     -0.059917
     73 C23        -6.1600   -2.1410   -1.8360 c3        1 MOL     -0.313236
     74 C24        -5.3020   -2.6060   -0.6170 c         1 MOL      0.681832
     75 O13        -5.1930   -1.8580    0.3740 o         1 MOL     -0.495585
     76 H32        -7.1860   -0.9670   -0.5200 hn        1 MOL      0.158885
     77 H33        -5.5890   -2.0530   -2.7620 h1        1 MOL      0.126613
     78 H34        -6.8370   -2.9770   -1.9720 h1        1 MOL      0.126613
     79 N8         -4.7830   -3.8330   -0.6330 n         1 MOL     -0.652112
     80 C25        -4.0770   -4.4960    0.4830 c3        1 MOL     -0.067803
     81 C26        -2.7130   -3.8810    0.7120 c         1 MOL      0.591044
     82 O14        -1.8850   -3.6790   -0.2050 o         1 MOL     -0.687986
     83 C27        -4.0370   -6.0310    0.1430 c3        1 MOL      0.466513
     84 C28        -3.3740   -6.8460    1.2840 c3        1 MOL     -0.471222
     85 O15        -3.2310   -6.3220   -1.0160 oh        1 MOL     -0.622066
     86 H35        -4.8010   -4.3760   -1.4870 hn        1 MOL      0.301602
     87 H36        -4.7760   -4.3850    1.3110 h1        1 MOL      0.114939
     88 H37        -5.0440   -6.4130   -0.0240 h1        1 MOL      0.011174
     89 H38        -3.6680   -6.0080   -1.8030 ho        1 MOL      0.353140
     90 H39        -2.2960   -6.7200    1.2500 hc        1 MOL      0.137308
     91 H40        -3.7300   -6.5640    2.2690 hc        1 MOL      0.137308
     92 H41        -3.5560   -7.9050    1.0760 hc        1 MOL      0.137308
     93 N9         -2.4660   -3.5760    1.9630 n         1 MOL     -0.537661
     94 C29        -1.1570   -3.1190    2.4370 c3        1 MOL      0.128617
     95 C30        -0.0500   -4.1250    2.2230 c         1 MOL      0.830601
     96 O16        -0.1760   -5.3160    2.5530 o         1 MOL     -0.592970
     97 C31        -1.1690   -2.3400    3.7800 c3        1 MOL      0.147688
     98 C32        -1.3390   -3.3090    4.9790 c3        1 MOL     -0.052563
     99 C33        -2.1990   -1.1700    3.9040 c3        1 MOL     -0.225685
    100 C34         0.0380   -3.5850    5.6670 c3        1 MOL     -0.068918
    101 H42        -3.2410   -3.5950    2.6180 hn        1 MOL      0.313266
    102 H43        -0.9440   -2.3020    1.7530 h1        1 MOL     -0.035543
    103 H44        -0.1700   -1.9080    3.7510 hc        1 MOL     -0.030507
    104 H45        -1.7980   -4.2060    4.5860 hc        1 MOL      0.003499
    105 H46        -2.0350   -2.8440    5.6830 hc        1 MOL      0.003499
    106 H47        -3.1560   -1.4990    3.4900 hc        1 MOL      0.077570
    107 H48        -2.4030   -0.9290    4.9460 hc        1 MOL      0.077570
    108 H49        -1.8580   -0.2390    3.4630 hc        1 MOL      0.077570
    109 H50         0.8330   -3.8300    4.9600 hc        1 MOL      0.021798
    110 H51         0.3060   -2.6910    6.2330 hc        1 MOL      0.021798
    111 H52         0.0140   -4.3720    6.4150 hc        1 MOL      0.021798
    112 N10         1.0850   -3.5220    1.7450 n         1 MOL     -0.830094
    113 C35         2.3620   -4.1890    1.9180 c3        1 MOL     -0.106168
    114 C36         3.6310   -3.3550    2.3340 c         1 MOL      0.632572
    115 O17         4.5780   -3.9440    2.8490 o         1 MOL     -0.540152
    116 C37         2.6720   -4.9340    0.6280 c3        1 MOL      0.627574
    117 C38         3.5580   -6.1580    0.8110 c3        1 MOL     -0.312782
    118 O18         3.4080   -4.2390   -0.2330 oh        1 MOL     -0.597102
    119 H53         1.0840   -2.5600    1.4570 hn        1 MOL      0.378857
    120 H54         2.3370   -4.9140    2.7240 h1        1 MOL      0.108528
    121 H55         1.7520   -5.2380    0.1360 h1        1 MOL     -0.020408
    122 H56         2.7370   -3.8920   -0.8240 ho        1 MOL      0.236353
    123 H57         3.0050   -6.8180    1.4860 hc        1 MOL      0.047235
    124 H58         3.6920   -6.6510   -0.1530 hc        1 MOL      0.047235
    125 H59         4.4710   -5.8050    1.2920 hc        1 MOL      0.047235
    126 N11         3.5540   -2.0330    2.1610 n         1 MOL     -0.446581
    127 C39         4.5720   -1.0420    2.5510 c3        1 MOL     -0.353949
    128 C40         5.8870   -1.2000    1.6540 c         1 MOL      0.702709
    129 O19         6.3800   -2.3130    1.4160 o         1 MOL     -0.455145
    130 C41         4.8110   -0.9930    4.0480 c3        1 MOL      0.433090
    131 C42         3.6060   -0.9880    4.9950 c3        1 MOL     -0.341178
    132 O20         5.5400    0.0870    4.3190 oh        1 MOL     -0.638071
    133 H60         2.6180   -1.6610    2.0770 hn        1 MOL      0.344090
    134 H61         4.0700   -0.1050    2.3190 h1        1 MOL      0.133976
    135 H62         5.5130   -1.8020    4.2430 h1        1 MOL      0.074593
    136 H63         4.9160    0.8210    4.3560 ho        1 MOL      0.391072
    137 H64         3.9130   -0.7270    6.0070 hc        1 MOL      0.087123
    138 H65         2.8740   -0.2520    4.6500 hc        1 MOL      0.087123
    139 H66         3.1920   -1.9970    5.0870 hc        1 MOL      0.087123
    140 N12         6.4060   -0.0570    1.2110 n         1 MOL     -0.525130
    141 C43         7.4930   -0.0400    0.1970 c3        1 MOL      0.164555
    142 C44         7.0150   -0.5170   -1.2380 c         1 MOL      0.385609
    143 O21         7.4220   -1.4750   -1.8440 o         1 MOL     -0.502605
    144 C45         8.1980    1.2920    0.2960 c3        1 MOL      0.067370
    145 C46         9.5200    1.2050   -0.3890 c3        1 MOL      0.087397
    146 C47        10.4170    2.3940   -0.3920 c3        1 MOL      0.036413
    147 C48        11.5750    2.0420   -1.3050 c3        1 MOL      0.021583
    148 N13        12.5930    3.1010   -1.3020 n4        1 MOL     -0.131029
    149 H67         5.8800    0.7790    1.3990 hn        1 MOL      0.276388
    150 H68         8.2080   -0.7880    0.5540 h1        1 MOL      0.046427
    151 H69         8.3670    1.5740    1.3340 hc        1 MOL     -0.025237
    152 H70         7.6910    2.0820   -0.2630 hc        1 MOL     -0.025237
    153 H71         9.2250    0.8810   -1.3870 hc        1 MOL     -0.021692
    154 H72        10.0790    0.3480    0.0060 hc        1 MOL     -0.021692
    155 H73        10.7960    2.6330    0.6040 hc        1 MOL      0.014172
    156 H74         9.8910    3.2570   -0.8140 hc        1 MOL      0.014172
    157 H75        11.2350    1.8600   -2.3190 hx        1 MOL      0.061260
    158 H76        12.0270    1.1600   -0.8350 hx        1 MOL      0.061260
    159 H77        12.1990    4.0280   -1.2460 hn        1 MOL      0.212826
    160 H78        13.2860    2.9940   -0.5720 hn        1 MOL      0.212826
    161 H79        13.0900    3.0360   -2.1830 hn        1 MOL      0.212826
    162 N14         6.0820    0.2470   -1.8620 n         1 MOL     -0.331299
    163 C49         5.5180   -0.0100   -3.2210 c3        1 MOL     -0.102429
    164 C50         5.8400    1.0730   -4.2400 c         1 MOL      0.492808
    165 O22         5.3810    2.2040   -4.0190 o         1 MOL     -0.516365
    166 C51         4.0150   -0.3550   -3.2130 c3        1 MOL     -0.180481
    167 C52         3.6380   -1.7950   -2.6510 c3        1 MOL      0.048258
    168 C53         2.1960   -2.1540   -2.4850 c         1 MOL      0.594394
    169 O23         1.7970   -3.1250   -1.8290 o         1 MOL     -0.631700
    170 O24         1.4020   -1.3610   -3.0030 o         1 MOL     -0.631700
    171 H80         5.6930    1.0110   -1.3400 hn        1 MOL      0.277662
    172 H81         6.0320   -0.9140   -3.5340 h1        1 MOL      0.107383
    173 H82         3.7360   -0.3720   -4.2640 hc        1 MOL      0.084277
    174 H83         3.3580    0.2900   -2.6350 hc        1 MOL      0.084277
    175 H84         4.0250   -1.8130   -1.6330 hc        1 MOL      0.024211
    176 H85         4.1140   -2.5800   -3.2410 hc        1 MOL      0.024211
    177 N15         6.6460    0.8520   -5.2470 n         1 MOL     -0.253896
    178 C54         7.1510    1.8670   -6.2420 c3        1 MOL     -0.362069
    179 H86         6.3050    2.3840   -6.6940 h1        1 MOL      0.151162
    180 H87         7.7890    2.5900   -5.7330 h1        1 MOL      0.151162
    181 H88         7.7250    1.3610   -7.0180 h1        1 MOL      0.151162
    182 H89         6.8480   -0.1050   -5.4810 hn        1 MOL      0.240949
    183 Ca1        -0.8280   -2.7790   -2.4960 Ca        1 MOL      1.743520
    184 O25        -1.6270   -1.6170   -4.6250 oh        1 MOL     -0.864063
    185 H90        -1.2480   -1.8840   -5.4620 ho        1 MOL      0.424399
    186 H91        -2.5770   -1.6190   -4.7780 ho        1 MOL      0.424399
    187 O26        -0.5750   -5.4080   -2.0390 oh        1 MOL     -0.864063
    188 H92        -0.0340   -6.1910   -1.9460 ho        1 MOL      0.424399
    189 H93        -1.4420   -5.6620   -1.7340 ho        1 MOL      0.424399
    190 O27         0.2710   -3.7480   -4.7700 oh        1 MOL     -0.864063
    191 H94         1.1690   -3.7460   -5.0980 ho        1 MOL      0.424399
    192 H95        -0.1150   -4.5620   -5.1050 ho        1 MOL      0.424399
@<TRIPOS>BOND
     1    1    2 1   
     2    1    4 1   
     3    1    5 1   
     4    1    6 1   
     5    2    3 2   
     6    2    7 1   
     7    7    8 1   
     8    7   15 1   
     9    8    9 1   
    10    8   11 1   
    11    8   16 1   
    12    9   10 2   
    13    9   19 1   
    14   11   12 1   
    15   11   17 1   
    16   11   18 1   
    17   12   13 1   
    18   12   14 1   
    19   19   20 1   
    20   19   28 1   
    21   20   21 1   
    22   20   23 1   
    23   20   29 1   
    24   21   22 2   
    25   21   41 1   
    26   23   24 1   
    27   23   30 1   
    28   23   31 1   
    29   24   25 1   
    30   24   32 1   
    31   24   33 1   
    32   25   26 1   
    33   25   34 1   
    34   25   35 1   
    35   26   27 1   
    36   26   36 1   
    37   26   37 1   
    38   27   38 1   
    39   27   39 1   
    40   27   40 1   
    41   41   42 1   
    42   41   49 1   
    43   42   43 1   
    44   42   45 1   
    45   42   50 1   
    46   43   44 2   
    47   43   53 1   
    48   45   46 1   
    49   45   51 1   
    50   45   52 1   
    51   46   47 1   
    52   46   48 1   
    53   53   54 1   
    54   53   57 1   
    55   54   55 1   
    56   54   58 1   
    57   54   59 1   
    58   55   56 2   
    59   55   60 1   
    60   60   61 1   
    61   60   68 1   
    62   61   62 1   
    63   61   64 1   
    64   61   69 1   
    65   62   63 2   
    66   62   72 1   
    67   64   65 1   
    68   64   70 1   
    69   64   71 1   
    70   65   66 1   
    71   65   67 1   
    72   72   73 1   
    73   72   76 1   
    74   73   74 1   
    75   73   77 1   
    76   73   78 1   
    77   74   75 2   
    78   74   79 1   
    79   79   80 1   
    80   79   86 1   
    81   80   81 1   
    82   80   83 1   
    83   80   87 1   
    84   81   82 2   
    85   81   93 1   
    86   83   84 1   
    87   83   85 1   
    88   83   88 1   
    89   84   90 1   
    90   84   91 1   
    91   84   92 1   
    92   85   89 1   
    93   93   94 1   
    94   93  101 1   
    95   94   95 1   
    96   94   97 1   
    97   94  102 1   
    98   95   96 2   
    99   95  112 1   
   100   97   98 1   
   101   97   99 1   
   102   97  103 1   
   103   98  100 1   
   104   98  104 1   
   105   98  105 1   
   106   99  106 1   
   107   99  107 1   
   108   99  108 1   
   109  100  109 1   
   110  100  110 1   
   111  100  111 1   
   112  112  113 1   
   113  112  119 1   
   114  113  114 1   
   115  113  116 1   
   116  113  120 1   
   117  114  115 2   
   118  114  126 1   
   119  116  117 1   
   120  116  118 1   
   121  116  121 1   
   122  117  123 1   
   123  117  124 1   
   124  117  125 1   
   125  118  122 1   
   126  126  127 1   
   127  126  133 1   
   128  127  128 1   
   129  127  130 1   
   130  127  134 1   
   131  128  129 2   
   132  128  140 1   
   133  130  131 1   
   134  130  132 1   
   135  130  135 1   
   136  131  137 1   
   137  131  138 1   
   138  131  139 1   
   139  132  136 1   
   140  140  141 1   
   141  140  149 1   
   142  141  142 1   
   143  141  144 1   
   144  141  150 1   
   145  142  143 2   
   146  142  162 1   
   147  144  145 1   
   148  144  151 1   
   149  144  152 1   
   150  145  146 1   
   151  145  153 1   
   152  145  154 1   
   153  146  147 1   
   154  146  155 1   
   155  146  156 1   
   156  147  148 1   
   157  147  157 1   
   158  147  158 1   
   159  148  159 1   
   160  148  160 1   
   161  148  161 1   
   162  162  163 1   
   163  162  171 1   
   164  163  164 1   
   165  163  166 1   
   166  163  172 1   
   167  164  165 2   
   168  164  177 1   
   169  166  167 1   
   170  166  173 1   
   171  166  174 1   
   172  167  168 1   
   173  167  175 1   
   174  167  176 1   
   175  168  169 1   
   176  168  170 1   
   177  177  178 1   
   178  177  182 1   
   179  178  179 1   
   180  178  180 1   
   181  178  181 1   
   182  184  185 1   
   183  184  186 1   
   184  187  188 1   
   185  187  189 1   
   186  190  191 1   
   187  190  192 1   
@<TRIPOS>SUBSTRUCTURE
     1 MOL         1 TEMP              0 ****  ****    0 ROOT
