@<TRIPOS>MOLECULE
MOL
  175   173     1     0     0
SMALL
resp


@<TRIPOS>ATOM
      1 C1         -6.8480    7.8220    2.2480 c3        1 MOL     -0.404329
      2 C2         -7.4110    7.0670    1.0620 c         1 MOL      0.680236
      3 O1         -7.0860    7.3840   -0.0390 o         1 MOL     -0.565473
      4 H1         -7.0530    7.2670    3.1630 hc        1 MOL      0.089780
      5 H2         -5.7700    7.9360    2.1280 hc        1 MOL      0.089780
      6 H3         -7.3130    8.8050    2.3070 hc        1 MOL      0.089780
      7 N1         -8.2040    6.0230    1.3340 n         1 MOL     -0.451474
      8 C3         -8.9820    5.3560    0.3230 c3        1 MOL      0.073277
      9 C4         -8.0670    4.5210   -0.6010 c         1 MOL      0.546169
     10 O2         -8.3690    4.3440   -1.7940 o         1 MOL     -0.543848
     11 C5         -9.9080    4.4540    1.1600 c3        1 MOL     -0.378036
     12 C6        -10.8390    3.5340    0.2690 c         1 MOL      0.746946
     13 O3        -11.7650    4.0380   -0.3900 o         1 MOL     -0.721465
     14 O4        -10.5850    2.3450    0.1540 o         1 MOL     -0.721465
     15 H4         -8.1570    5.6580    2.2770 hn        1 MOL      0.277140
     16 H5         -9.6540    6.0430   -0.2010 h1        1 MOL      0.095699
     17 H6        -10.5400    5.1600    1.7090 hc        1 MOL      0.048832
     18 H7         -9.2850    3.7530    1.7180 hc        1 MOL      0.048832
     19 N2         -6.8600    4.1240   -0.2080 n         1 MOL     -0.370001
     20 C7         -5.8970    3.4060   -0.9800 c3        1 MOL      0.104775
     21 C8         -4.9970    2.6250    0.0110 c         1 MOL      0.485349
     22 O5         -4.5090    3.1930    1.0230 o         1 MOL     -0.547286
     23 C9         -4.9980    4.4050   -1.7800 c3        1 MOL     -0.344848
     24 H8         -6.6800    4.1610    0.7860 hn        1 MOL      0.225356
     25 H9         -6.3420    2.7430   -1.7130 h1        1 MOL      0.097122
     26 H10        -4.3720    3.8420   -2.4760 hc        1 MOL      0.106092
     27 H11        -5.5530    5.2280   -2.2220 hc        1 MOL      0.106092
     28 H12        -4.2380    4.8890   -1.1790 hc        1 MOL      0.106092
     29 N3         -4.6800    1.3200   -0.1990 n         1 MOL     -0.330895
     30 C10        -5.3070    0.4240   -1.1870 c3        1 MOL     -0.069728
     31 C11        -5.5920   -0.9420   -0.4890 c         1 MOL      0.544395
     32 O6         -4.8790   -1.2440    0.4400 o         1 MOL     -0.517860
     33 C12        -4.3550    0.3530   -2.4410 c3        1 MOL     -0.113803
     34 C13        -2.8890   -0.0250   -2.0900 c         1 MOL      0.654156
     35 O7         -2.0700    0.7780   -1.5860 o         1 MOL     -0.686260
     36 O8         -2.4970   -1.1610   -2.4090 o         1 MOL     -0.686260
     37 H13        -4.1140    0.9440    0.5480 hn        1 MOL      0.257535
     38 H14        -6.3070    0.7130   -1.4920 h1        1 MOL      0.065988
     39 H15        -4.3940    1.3560   -2.8630 hc        1 MOL      0.021458
     40 H16        -4.7960   -0.3680   -3.1220 hc        1 MOL      0.021458
     41 N4         -6.6050   -1.6420   -0.9750 n         1 MOL     -0.431861
     42 C14        -7.0230   -3.0280   -0.5660 c3        1 MOL      0.039512
     43 C15        -6.9120   -4.0610   -1.6990 c         1 MOL      0.614181
     44 O9         -7.9560   -4.5460   -2.0680 o         1 MOL     -0.537522
     45 H17        -7.0760   -1.3420   -1.8180 hn        1 MOL      0.321953
     46 H18        -8.0940   -3.0460   -0.3670 h1        1 MOL      0.057984
     47 H19        -6.3770   -3.3240    0.2660 h1        1 MOL      0.057984
     48 N5         -5.7080   -4.5980   -2.0860 n         1 MOL     -0.636138
     49 C16        -4.4060   -4.3980   -1.3730 c3        1 MOL      0.125593
     50 C17        -4.3350   -5.2100    0.0250 c         1 MOL      0.533603
     51 O10        -5.0290   -6.2050    0.2080 o         1 MOL     -0.547706
     52 C18        -3.3040   -4.8570   -2.3710 c3        1 MOL     -0.016584
     53 C19        -1.9040   -4.4160   -1.9950 c         1 MOL      0.342463
     54 N6         -0.9140   -4.9290   -2.6990 n         1 MOL     -0.601090
     55 O11        -1.7220   -3.7540   -0.9980 o         1 MOL     -0.398818
     56 H20        -5.8360   -5.5470   -2.4230 hn        1 MOL      0.325424
     57 H21        -4.2400   -3.3250   -1.2610 h1        1 MOL      0.065156
     58 H22        -3.5520   -4.4680   -3.3580 hc        1 MOL      0.036481
     59 H23        -3.3350   -5.9280   -2.5570 hc        1 MOL      0.036481
     60 H24        -1.1110   -5.6420   -3.3830 hn        1 MOL      0.322459
     61 H25         0.0130   -4.5380   -2.5610 hn        1 MOL      0.322459
     62 N7         -3.5260   -4.6910    0.9970 n         1 MOL     -0.282295
     63 C20        -3.3390   -5.1320    2.3940 c3        1 MOL     -0.008111
     64 C21        -1.9270   -5.2980    2.8680 c         1 MOL      0.483004
     65 O12        -1.7670   -5.7700    3.9690 o         1 MOL     -0.584804
     66 H26        -2.9800   -3.9200    0.6200 hn        1 MOL      0.094274
     67 H27        -3.7850   -6.1160    2.5360 h1        1 MOL      0.069763
     68 H28        -3.8350   -4.5530    3.1810 h1        1 MOL      0.069763
     69 N8         -0.9120   -4.9600    2.0750 n         1 MOL     -0.099800
     70 C22         0.4860   -5.0790    2.2930 c3        1 MOL     -0.136045
     71 C23         1.1140   -3.7020    2.0640 c         1 MOL      0.258924
     72 O13         0.7120   -2.9500    1.1800 o         1 MOL     -0.413806
     73 C24         1.0660   -6.1180    1.2510 c3        1 MOL      0.342513
     74 C25         0.7550   -7.6060    1.6910 c3        1 MOL     -0.449375
     75 O14         0.4230   -5.9980    0.0170 oh        1 MOL     -0.656144
     76 H29        -1.2090   -4.5790    1.1800 hn        1 MOL      0.130614
     77 H30         0.7220   -5.5230    3.2630 h1        1 MOL      0.100769
     78 H31         2.1150   -5.9360    1.0370 h1        1 MOL      0.026455
     79 H32         1.0200   -5.5350   -0.5620 ho        1 MOL      0.490590
     80 H33        -0.3030   -7.8690    1.6900 hc        1 MOL      0.114373
     81 H34         1.2760   -8.2960    1.0240 hc        1 MOL      0.114373
     82 H35         1.1560   -7.7630    2.6870 hc        1 MOL      0.114373
     83 N9          2.2300   -3.4060    2.7170 n         1 MOL     -0.176531
     84 C26         3.1150   -2.3350    2.4260 c3        1 MOL      0.049100
     85 C27         3.9780   -2.7270    1.2140 c         1 MOL      0.211550
     86 O15         4.9010   -3.5330    1.3930 o         1 MOL     -0.563212
     87 C28         3.9750   -2.0060    3.6510 c3        1 MOL      0.247543
     88 C29         5.2260   -1.1110    3.5350 c3        1 MOL     -0.255595
     89 C30         2.9500   -1.4230    4.7880 c3        1 MOL     -0.252701
     90 C31         5.0090    0.2570    2.7420 c3        1 MOL      0.085502
     91 H36         2.5540   -4.1460    3.3170 hn        1 MOL      0.211167
     92 H37         2.6200   -1.4100    2.1410 h1        1 MOL      0.004211
     93 H38         4.3240   -2.9290    4.1240 hc        1 MOL     -0.015606
     94 H39         5.9610   -1.7160    3.0020 hc        1 MOL      0.054939
     95 H40         5.6020   -0.8750    4.5380 hc        1 MOL      0.054939
     96 H41         3.5090   -1.4190    5.7310 hc        1 MOL      0.044578
     97 H42         2.5980   -0.4300    4.4870 hc        1 MOL      0.044578
     98 H43         2.2030   -2.1900    4.9510 hc        1 MOL      0.044578
     99 H44         4.2420    0.8430    3.2540 hc        1 MOL      0.008177
    100 H45         5.9910    0.7250    2.8590 hc        1 MOL      0.008177
    101 H46         4.9470    0.0370    1.6750 hc        1 MOL      0.008177
    102 N10         3.7420   -2.2000    0.0250 n         1 MOL      0.164687
    103 C32         4.4630   -2.6510   -1.1800 c3        1 MOL      0.015108
    104 C33         5.5730   -1.6290   -1.5950 c         1 MOL      0.477781
    105 O16         6.1040   -1.8100   -2.6920 o         1 MOL     -0.554623
    106 C34         3.3760   -2.8760   -2.3470 c3        1 MOL     -0.194341
    107 C35         2.0790   -3.6420   -1.9100 c         1 MOL      0.867929
    108 O17         2.1410   -4.7990   -1.5630 o         1 MOL     -0.756191
    109 O18         0.9960   -3.0350   -1.9820 o         1 MOL     -0.756191
    110 H47         3.0670   -1.4580   -0.0280 hn        1 MOL     -0.013395
    111 H48         4.9750   -3.5810   -0.9510 h1        1 MOL      0.075777
    112 H49         3.7260   -3.4350   -3.2000 hc        1 MOL      0.035743
    113 H50         3.0580   -1.9140   -2.7400 hc        1 MOL      0.035743
    114 N11         5.8160   -0.5830   -0.8210 n         1 MOL     -0.362956
    115 C36         6.7850    0.5080   -1.2100 c3        1 MOL      0.202436
    116 C37         6.4750    1.8630   -0.5640 c         1 MOL      0.398060
    117 O19         6.1390    1.8800    0.6050 o         1 MOL     -0.533427
    118 C38         8.2030   -0.0050   -0.7570 c3        1 MOL     -0.321906
    119 C39         9.2190    1.0090   -0.9810 ca        1 MOL      0.164583
    120 C40         9.6920    1.8980    0.0350 ca        1 MOL     -0.178418
    121 C41         9.7090    1.1610   -2.2860 ca        1 MOL     -0.178418
    122 C42        10.6170    2.9070   -0.2580 ca        1 MOL     -0.112929
    123 C43        10.5650    2.1860   -2.6050 ca        1 MOL     -0.112929
    124 C44        11.0660    3.1080   -1.5950 ca        1 MOL     -0.153887
    125 H51         5.3020   -0.5070    0.0480 hn        1 MOL      0.161608
    126 H52         6.7320    0.6230   -2.2880 h1        1 MOL      0.049792
    127 H53         8.5490   -0.8740   -1.3100 hc        1 MOL      0.132995
    128 H54         8.2290   -0.2370    0.3110 hc        1 MOL      0.132995
    129 H55         9.5750    1.6640    1.0870 ha        1 MOL      0.131919
    130 H56         9.2750    0.5070   -3.0200 ha        1 MOL      0.131919
    131 H57        11.0240    3.5100    0.5450 ha        1 MOL      0.110684
    132 H58        10.8870    2.3310   -3.6190 ha        1 MOL      0.110684
    133 H59        11.6820    3.9370   -1.8910 ha        1 MOL      0.120591
    134 N12         6.5230    3.0450   -1.2860 n         1 MOL     -0.174268
    135 C45         6.4720    4.4780   -0.7840 c3        1 MOL      0.071950
    136 C46         5.1600    4.9120   -0.0600 c         1 MOL      0.276393
    137 O20         5.0600    6.0730    0.3440 o         1 MOL     -0.508597
    138 C47         6.6740    5.3770   -2.0630 c3        1 MOL     -0.167896
    139 C48         7.5190    4.4840   -2.8770 c3        1 MOL      0.061413
    140 C49         6.8560    3.1210   -2.7140 c3        1 MOL     -0.050292
    141 H60         7.2860    4.7150   -0.0990 h1        1 MOL      0.086181
    142 H61         5.6730    5.5420   -2.4540 hc        1 MOL      0.080070
    143 H62         7.2400    6.2830   -1.8260 hc        1 MOL      0.080070
    144 H63         7.6180    4.8000   -3.9160 hc        1 MOL      0.011088
    145 H64         8.5160    4.4100   -2.4440 hc        1 MOL      0.011088
    146 H65         5.9190    3.0570   -3.2660 h1        1 MOL      0.042805
    147 H66         7.5750    2.3830   -3.0610 h1        1 MOL      0.042805
    148 N13         4.2460    3.9790    0.1990 n         1 MOL      0.002152
    149 C50         3.0090    4.2600    0.8390 c3        1 MOL     -0.337029
    150 C51         3.0330    4.4960    2.3460 c         1 MOL      0.486667
    151 O21         2.0440    4.9900    2.8780 o         1 MOL     -0.525822
    152 C52         2.0050    3.1310    0.4710 c3        1 MOL     -0.099413
    153 C53         2.2390    1.8240    1.1760 c3        1 MOL     -0.102867
    154 C54         1.3540    0.7520    0.5050 c         1 MOL      0.739399
    155 O22         1.9090   -0.0730   -0.2490 o         1 MOL     -0.733783
    156 O23         0.1740    0.6550    0.6900 o         1 MOL     -0.733783
    157 H67         4.3570    3.1000   -0.2610 hn        1 MOL      0.166214
    158 H68         2.6750    5.2180    0.4320 h1        1 MOL      0.174962
    159 H69         1.9330    2.9930   -0.6040 hc        1 MOL      0.080452
    160 H70         1.0070    3.3850    0.8280 hc        1 MOL      0.080452
    161 H71         1.8670    1.8130    2.1940 hc        1 MOL      0.074757
    162 H72         3.3100    1.6090    1.1840 hc        1 MOL      0.074757
    163 N14         4.0880    4.1800    3.0600 n         1 MOL     -0.122379
    164 C55         4.2830    4.4880    4.4940 c3        1 MOL     -0.223779
    165 H73         3.8300    3.7020    5.0980 h1        1 MOL      0.098530
    166 H74         5.3500    4.5450    4.7120 h1        1 MOL      0.098530
    167 H75         3.8130    5.4430    4.7290 h1        1 MOL      0.098530
    168 H76         4.7000    3.5610    2.5380 hn        1 MOL      0.142926
    169 Ca1        -0.4630   -1.3250   -0.7850 Ca        1 MOL      1.691078
    170 O24        -2.3330   -1.4910    1.2180 oh        1 MOL     -0.833542
    171 H77        -2.1750   -1.0360    2.0520 ho        1 MOL      0.406999
    172 H78        -3.2600   -1.3640    1.0440 ho        1 MOL      0.406999
    173 O25         0.6770   -0.0030   -2.8950 oh        1 MOL     -0.833542
    174 H79         0.7670    0.0450   -3.8450 ho        1 MOL      0.406999
    175 H80         1.1200    0.7800   -2.5750 ho        1 MOL      0.406999
@<TRIPOS>BOND
     1    1    2 1   
     2    1    4 1   
     3    1    5 1   
     4    1    6 1   
     5    2    3 2   
     6    2    7 1   
     7    7    8 1   
     8    7   15 1   
     9    8    9 1   
    10    8   11 1   
    11    8   16 1   
    12    9   10 2   
    13    9   19 1   
    14   11   12 1   
    15   11   17 1   
    16   11   18 1   
    17   12   13 1   
    18   12   14 1   
    19   19   20 1   
    20   19   24 1   
    21   20   21 1   
    22   20   23 1   
    23   20   25 1   
    24   21   22 2   
    25   21   29 1   
    26   23   26 1   
    27   23   27 1   
    28   23   28 1   
    29   29   30 1   
    30   29   37 1   
    31   30   31 1   
    32   30   33 1   
    33   30   38 1   
    34   31   32 2   
    35   31   41 1   
    36   33   34 1   
    37   33   39 1   
    38   33   40 1   
    39   34   35 1   
    40   34   36 1   
    41   41   42 1   
    42   41   45 1   
    43   42   43 1   
    44   42   46 1   
    45   42   47 1   
    46   43   44 2   
    47   43   48 1   
    48   48   49 1   
    49   48   56 1   
    50   49   50 1   
    51   49   52 1   
    52   49   57 1   
    53   50   51 2   
    54   50   62 1   
    55   52   53 1   
    56   52   58 1   
    57   52   59 1   
    58   53   54 1   
    59   53   55 2   
    60   54   60 1   
    61   54   61 1   
    62   62   63 1   
    63   62   66 1   
    64   63   64 1   
    65   63   67 1   
    66   63   68 1   
    67   64   65 2   
    68   64   69 1   
    69   69   70 1   
    70   69   76 1   
    71   70   71 1   
    72   70   73 1   
    73   70   77 1   
    74   71   72 2   
    75   71   83 1   
    76   73   74 1   
    77   73   75 1   
    78   73   78 1   
    79   74   80 1   
    80   74   81 1   
    81   74   82 1   
    82   75   79 1   
    83   83   84 1   
    84   83   91 1   
    85   84   85 1   
    86   84   87 1   
    87   84   92 1   
    88   85   86 2   
    89   85  102 1   
    90   87   88 1   
    91   87   89 1   
    92   87   93 1   
    93   88   90 1   
    94   88   94 1   
    95   88   95 1   
    96   89   96 1   
    97   89   97 1   
    98   89   98 1   
    99   90   99 1   
   100   90  100 1   
   101   90  101 1   
   102  102  103 1   
   103  102  110 1   
   104  103  104 1   
   105  103  106 1   
   106  103  111 1   
   107  104  105 2   
   108  104  114 1   
   109  106  107 1   
   110  106  112 1   
   111  106  113 1   
   112  107  108 1   
   113  107  109 1   
   114  114  115 1   
   115  114  125 1   
   116  115  116 1   
   117  115  118 1   
   118  115  126 1   
   119  116  117 2   
   120  116  134 1   
   121  118  119 1   
   122  118  127 1   
   123  118  128 1   
   124  119  120 ar  
   125  119  121 ar  
   126  120  122 ar  
   127  120  129 1   
   128  121  123 ar  
   129  121  130 1   
   130  122  124 ar  
   131  122  131 1   
   132  123  124 ar  
   133  123  132 1   
   134  124  133 1   
   135  134  135 1   
   136  134  140 1   
   137  135  136 1   
   138  135  138 1   
   139  135  141 1   
   140  136  137 2   
   141  136  148 1   
   142  138  139 1   
   143  138  142 1   
   144  138  143 1   
   145  139  140 1   
   146  139  144 1   
   147  139  145 1   
   148  140  146 1   
   149  140  147 1   
   150  148  149 1   
   151  148  157 1   
   152  149  150 1   
   153  149  152 1   
   154  149  158 1   
   155  150  151 2   
   156  150  163 1   
   157  152  153 1   
   158  152  159 1   
   159  152  160 1   
   160  153  154 1   
   161  153  161 1   
   162  153  162 1   
   163  154  155 1   
   164  154  156 1   
   165  163  164 1   
   166  163  168 1   
   167  164  165 1   
   168  164  166 1   
   169  164  167 1   
   170  170  171 1   
   171  170  172 1   
   172  173  174 1   
   173  173  175 1   
@<TRIPOS>SUBSTRUCTURE
     1 MOL         1 TEMP              0 ****  ****    0 ROOT
