@<TRIPOS>MOLECULE
MOL
  189   185     1     0     0
SMALL
resp


@<TRIPOS>ATOM
      1 C1          9.4820    1.7350    0.9430 c3        1 MOL     -0.708230
      2 C2          8.3610    1.0360    0.2160 c         1 MOL      0.929678
      3 O1          7.1720    1.0570    0.7040 o         1 MOL     -0.763126
      4 H1         10.2260    2.0740    0.2210 hc        1 MOL      0.177179
      5 H2          9.0860    2.5930    1.4850 hc        1 MOL      0.177179
      6 H3          9.9480    1.0440    1.6450 hc        1 MOL      0.177179
      7 N1          8.6110    0.3500   -0.9090 n         1 MOL     -0.652080
      8 C3          7.5220    0.0160   -1.8630 c3        1 MOL      0.087093
      9 C4          6.8500   -1.3410   -1.4280 c         1 MOL      0.531047
     10 O2          6.5570   -2.1520   -2.2830 o         1 MOL     -0.457507
     11 C5          7.9880    0.1480   -3.3270 c3        1 MOL     -0.443786
     12 C6          9.1940   -0.7260   -3.7470 c         1 MOL      0.808805
     13 O3         10.0370   -1.1190   -2.9750 o         1 MOL     -0.671542
     14 O4          9.3240   -0.9950   -4.9610 o         1 MOL     -0.671542
     15 H4          9.5100    0.3140   -1.3480 hn        1 MOL      0.296568
     16 H5          6.6540    0.6660   -1.7580 h1        1 MOL      0.102562
     17 H6          8.2850    1.1920   -3.3350 hc        1 MOL      0.135333
     18 H7          7.1040   -0.0570   -3.9210 hc        1 MOL      0.135333
     19 N2          6.6520   -1.6240   -0.1350 n         1 MOL     -0.357090
     20 C7          6.3920   -3.0000    0.4230 c3        1 MOL     -0.044017
     21 C8          4.9370   -3.4820    0.2520 c         1 MOL      0.402416
     22 O5          4.6500   -4.6390   -0.1150 o         1 MOL     -0.514722
     23 C9          6.9130   -3.0820    1.9210 c3        1 MOL      0.015071
     24 C10         8.3990   -2.8080    2.1120 c3        1 MOL     -0.025880
     25 C11         8.7190   -2.7330    3.6030 c3        1 MOL     -0.132972
     26 C12        10.2800   -2.5920    3.7460 c3        1 MOL      0.100136
     27 N3         10.6070   -2.8800    5.1580 n4        1 MOL     -0.382069
     28 H8          6.9000   -0.9120    0.5390 hn        1 MOL      0.309528
     29 H9          7.1480   -3.6280   -0.0570 h1        1 MOL      0.100488
     30 H10         6.7250   -4.1310    2.1360 hc        1 MOL      0.016071
     31 H11         6.2380   -2.5730    2.6120 hc        1 MOL      0.016071
     32 H12         8.6650   -1.8540    1.6470 hc        1 MOL      0.038883
     33 H13         9.0110   -3.6240    1.7400 hc        1 MOL      0.038883
     34 H14         8.5840   -3.7120    4.0710 hc        1 MOL      0.051143
     35 H15         8.0540   -1.9840    4.0480 hc        1 MOL      0.051143
     36 H16        10.5300   -1.5770    3.4190 hx        1 MOL      0.077404
     37 H17        10.7670   -3.3840    3.1910 hx        1 MOL      0.077404
     38 H18        10.0530   -3.6700    5.4440 hn        1 MOL      0.330659
     39 H19        11.5560   -3.1750    5.3050 hn        1 MOL      0.330659
     40 H20        10.3500   -2.0690    5.7130 hn        1 MOL      0.330659
     41 N4          3.9430   -2.6750    0.4200 n         1 MOL     -0.219239
     42 C13         3.8140   -1.3240    1.0460 c3        1 MOL      0.074945
     43 C14         3.8370   -0.1630   -0.0040 c         1 MOL      0.073974
     44 O6          3.7760   -0.3250   -1.2470 o         1 MOL     -0.366429
     45 C15         2.5990   -1.3010    2.0450 c3        1 MOL     -0.210830
     46 C16         1.3360   -1.8950    1.3790 c         1 MOL      0.836186
     47 O7          0.5950   -1.0850    0.8480 o         1 MOL     -0.687718
     48 O8          1.0850   -3.0810    1.7050 o         1 MOL     -0.687718
     49 H21         3.1110   -3.2400    0.4150 hn        1 MOL      0.245155
     50 H22         4.6780   -1.2220    1.7030 h1        1 MOL      0.080653
     51 H23         2.4800   -0.2640    2.3570 hc        1 MOL      0.021863
     52 H24         2.8120   -1.9210    2.9110 hc        1 MOL      0.021863
     53 N5          3.9880    1.1500    0.4610 n         1 MOL     -0.189513
     54 C17         4.0610    2.3180   -0.3950 c3        1 MOL     -0.024916
     55 C18         2.6700    2.5950   -1.0420 c         1 MOL      0.369536
     56 O9          1.6670    2.0750   -0.4710 o         1 MOL     -0.515433
     57 H25         4.0790    1.2820    1.4550 hn        1 MOL      0.263066
     58 H26         4.7760    2.2760   -1.2160 h1        1 MOL      0.076148
     59 H27         4.3590    3.2070    0.1710 h1        1 MOL      0.076148
     60 N6          2.7000    3.4140   -2.0990 n         1 MOL     -0.325767
     61 C19         1.5210    4.1100   -2.6860 c3        1 MOL      0.287309
     62 C20         1.9450    5.5690   -2.9630 c         1 MOL      0.325562
     63 O10         3.1700    5.7970   -3.2440 o         1 MOL     -0.526095
     64 C21         1.1330    3.3850   -3.9350 c3        1 MOL     -0.185713
     65 C22         0.7130    1.9960   -3.6830 c         1 MOL      0.710183
     66 O11         1.4430    1.1130   -4.1730 o         1 MOL     -0.700495
     67 O12        -0.2340    1.7670   -2.9650 o         1 MOL     -0.700495
     68 H28         3.5670    3.8800   -2.3200 hn        1 MOL      0.264703
     69 H29         0.7070    4.1690   -1.9710 h1        1 MOL     -0.031143
     70 H30         2.0520    3.4410   -4.5090 hc        1 MOL      0.049543
     71 H31         0.3710    3.9720   -4.4480 hc        1 MOL      0.049543
     72 N7          1.1000    6.5760   -2.8200 n         1 MOL     -0.279595
     73 C23        -0.3360    6.5040   -2.5130 c3        1 MOL     -0.266347
     74 C24        -0.7850    6.0720   -1.0390 c         1 MOL      0.683729
     75 O13        -0.1540    6.3110   -0.0320 o         1 MOL     -0.518051
     76 H32         1.4710    7.4960   -3.0030 hn        1 MOL      0.298530
     77 H33        -0.7130    5.7060   -3.1640 h1        1 MOL      0.121013
     78 H34        -0.6820    7.4760   -2.8710 h1        1 MOL      0.121013
     79 N8         -1.9450    5.4470   -1.0330 n         1 MOL     -0.644270
     80 C25        -2.5740    4.9190    0.1760 c3        1 MOL      0.031163
     81 C26        -1.8280    3.6650    0.6540 c         1 MOL      0.902104
     82 O14        -1.4170    2.7810   -0.0410 o         1 MOL     -0.707463
     83 C27        -4.0850    4.7720   -0.0770 c3        1 MOL      0.344884
     84 C28        -4.8820    4.4160    1.2300 c3        1 MOL     -0.376799
     85 O15        -4.4120    3.7250   -0.9930 oh        1 MOL     -0.645868
     86 H35        -2.4540    5.2750   -1.8930 hn        1 MOL      0.312882
     87 H36        -2.3770    5.6960    0.9160 h1        1 MOL      0.054894
     88 H37        -4.5110    5.7030   -0.4700 h1        1 MOL      0.020096
     89 H38        -4.8120    4.1420   -1.7590 ho        1 MOL      0.423630
     90 H39        -4.3270    3.5820    1.6630 hc        1 MOL      0.100611
     91 H40        -4.9690    5.2890    1.8760 hc        1 MOL      0.100611
     92 H41        -5.8920    4.0490    1.0720 hc        1 MOL      0.100611
     93 N9         -1.7610    3.6660    1.9550 n         1 MOL     -0.577459
     94 C29        -1.2700    2.5370    2.8730 c3        1 MOL      0.036708
     95 C30        -1.9400    1.1840    2.7190 c         1 MOL      0.508747
     96 O16        -2.1550    0.7330    1.5810 o         1 MOL     -0.525214
     97 C31         0.2660    2.3310    2.8420 c3        1 MOL      0.447371
     98 C32         1.0400    3.6540    2.7130 c3        1 MOL     -0.119886
     99 C33         0.8160    1.5550    4.0400 c3        1 MOL     -0.651939
    100 C34         1.0760    4.4870    3.9940 c3        1 MOL     -0.181338
    101 H42        -2.4400    4.3030    2.3470 hn        1 MOL      0.251728
    102 H43        -1.4740    2.9750    3.8500 h1        1 MOL      0.034200
    103 H44         0.5710    1.7650    1.9660 hc        1 MOL     -0.142332
    104 H45         0.6420    4.2410    1.8860 hc        1 MOL      0.059337
    105 H46         2.0620    3.3730    2.4690 hc        1 MOL      0.059337
    106 H47         1.9000    1.6970    4.0490 hc        1 MOL      0.161803
    107 H48         0.3580    1.9610    4.9400 hc        1 MOL      0.161803
    108 H49         0.5930    0.4890    3.9730 hc        1 MOL      0.161803
    109 H50         1.4420    5.4980    3.8290 hc        1 MOL      0.044280
    110 H51         0.0400    4.6060    4.3020 hc        1 MOL      0.044280
    111 H52         1.5880    3.8830    4.7440 hc        1 MOL      0.044280
    112 N10        -2.2620    0.4810    3.8310 n         1 MOL     -0.554274
    113 C35        -2.8020   -0.8850    3.8150 c3        1 MOL      0.007047
    114 C36        -4.1500   -1.0870    3.1250 c         1 MOL      0.528754
    115 O17        -4.4720   -2.2750    3.0320 o         1 MOL     -0.549658
    116 C37        -3.0030   -1.3670    5.3180 c3        1 MOL      0.516617
    117 C38        -4.1370   -0.8520    6.1950 c3        1 MOL     -0.266674
    118 O18        -1.8140   -1.2240    6.0500 oh        1 MOL     -0.668889
    119 H53        -1.9620    0.8700    4.7140 hn        1 MOL      0.295231
    120 H54        -2.1010   -1.5000    3.2680 h1        1 MOL      0.065756
    121 H55        -3.1380   -2.4420    5.2240 h1        1 MOL     -0.032118
    122 H56        -1.1580   -1.8330    5.7270 ho        1 MOL      0.410417
    123 H57        -4.0010    0.2040    6.3840 hc        1 MOL      0.068859
    124 H58        -5.0740   -0.9920    5.6560 hc        1 MOL      0.068859
    125 H59        -4.2590   -1.4420    7.1120 hc        1 MOL      0.068859
    126 N11        -4.8990   -0.0740    2.7450 n         1 MOL     -0.406325
    127 C39        -6.1440   -0.1740    1.9550 c3        1 MOL      0.051632
    128 C40        -5.9160   -0.8250    0.5400 c         1 MOL      0.516168
    129 O19        -4.9240   -0.3680   -0.1190 o         1 MOL     -0.553309
    130 C41        -6.9450    1.0800    2.0610 c3        1 MOL      0.293282
    131 C42        -8.4070    0.7350    1.5930 c3        1 MOL     -0.128252
    132 O20        -7.0580    1.4520    3.4010 oh        1 MOL     -0.542575
    133 H60        -4.5880    0.8820    2.8840 hn        1 MOL      0.234449
    134 H61        -6.7290   -0.9250    2.4900 h1        1 MOL      0.056172
    135 H62        -6.5880    1.8620    1.3870 h1        1 MOL     -0.017897
    136 H63        -6.1900    1.8510    3.4860 ho        1 MOL      0.335995
    137 H64        -8.4710    0.6560    0.5040 hc        1 MOL      0.041877
    138 H65        -8.8390   -0.0980    2.1460 hc        1 MOL      0.041877
    139 H66        -9.0220    1.6380    1.6890 hc        1 MOL      0.041877
    140 N12        -6.6130   -1.8410    0.2310 n         1 MOL     -0.511101
    141 C43        -6.6720   -2.5060   -1.0920 c3        1 MOL      0.174092
    142 C44        -5.2960   -2.7080   -1.7870 c         1 MOL      0.546830
    143 O21        -5.1650   -2.4120   -2.9860 o         1 MOL     -0.536327
    144 C45        -7.7200   -1.8580   -1.9800 c3        1 MOL     -0.643668
    145 C46        -9.1570   -1.9670   -1.4610 c3        1 MOL      0.220978
    146 C47       -10.2030   -1.0240   -2.1330 c3        1 MOL      0.023059
    147 C48       -11.5560   -1.3140   -1.5160 c3        1 MOL      0.154408
    148 N13       -12.6820   -0.6730   -2.1900 n4        1 MOL     -0.113540
    149 H67        -7.3340   -2.0930    0.8900 hn        1 MOL      0.297543
    150 H68        -6.9850   -3.5510   -1.0060 h1        1 MOL      0.045956
    151 H69        -7.8140   -2.3530   -2.9550 hc        1 MOL      0.210832
    152 H70        -7.4720   -0.8120   -2.1720 hc        1 MOL      0.210832
    153 H71        -9.1220   -1.6700   -0.4160 hc        1 MOL      0.003534
    154 H72        -9.5250   -2.9900   -1.5370 hc        1 MOL      0.003534
    155 H73       -10.2650   -1.1130   -3.2220 hc        1 MOL     -0.005567
    156 H74        -9.9360   -0.0110   -1.8470 hc        1 MOL     -0.005567
    157 H75       -11.5070   -0.9750   -0.4780 hx        1 MOL     -0.021021
    158 H76       -11.5810   -2.4050   -1.5390 hx        1 MOL     -0.021021
    159 H77       -13.4950   -0.5340   -1.6060 hn        1 MOL      0.155556
    160 H78       -12.3020    0.2170   -2.4890 hn        1 MOL      0.155556
    161 H79       -12.9760   -1.3100   -2.9170 hn        1 MOL      0.155556
    162 N14        -4.3220   -3.1760   -1.0310 n         1 MOL     -0.520814
    163 C49        -3.0020   -3.4130   -1.5500 c3        1 MOL      0.520086
    164 C50        -1.8890   -2.8650   -0.7400 c         1 MOL      0.358757
    165 O22        -1.3580   -1.8170   -1.1050 o         1 MOL     -0.638963
    166 C51        -2.7650   -4.8490   -2.0050 c3        1 MOL      0.171758
    167 C52        -3.4070   -5.0730   -3.3670 c3        1 MOL     -0.109389
    168 C53        -3.0920   -6.5110   -3.9100 c         1 MOL      0.659045
    169 O23        -2.0120   -6.6560   -4.4520 o         1 MOL     -0.620724
    170 O24        -3.9130   -7.4550   -3.7220 o         1 MOL     -0.620724
    171 H80        -4.5460   -3.4650   -0.0870 hn        1 MOL      0.294710
    172 H81        -2.8370   -2.8990   -2.4970 h1        1 MOL      0.003826
    173 H82        -3.3320   -5.5060   -1.3440 hc        1 MOL     -0.067384
    174 H83        -1.7050   -5.0840   -2.1480 hc        1 MOL     -0.067384
    175 H84        -3.1980   -4.3190   -4.1200 hc        1 MOL     -0.017187
    176 H85        -4.4820   -5.0510   -3.1880 hc        1 MOL     -0.017187
    177 N15        -1.3950   -3.4790    0.3100 n         1 MOL     -0.326261
    178 C54        -1.7430   -4.7750    0.9230 c3        1 MOL     -0.004613
    179 H86        -2.7800   -5.0190    0.6910 h1        1 MOL      0.028271
    180 H87        -1.0890   -5.5520    0.5260 h1        1 MOL      0.028271
    181 H88        -1.6170   -4.7110    2.0040 h1        1 MOL      0.028271
    182 H89        -0.5730   -3.0020    0.6470 hn        1 MOL      0.323783
    183 Ca1        -0.4760    0.5620   -0.7320 Ca        1 MOL      1.780779
    184 O25         1.2030   -0.7910   -2.2630 oh        1 MOL     -0.969432
    185 H90         1.1640   -0.4010   -3.1310 ho        1 MOL      0.464489
    186 H91         2.1410   -0.8550   -2.0620 ho        1 MOL      0.464489
    187 O26        -3.0280    0.9190   -1.3430 oh        1 MOL     -0.969432
    188 H92        -3.4840    1.7220   -1.0820 ho        1 MOL      0.464489
    189 H93        -3.6530    0.2200   -1.1450 ho        1 MOL      0.464489
@<TRIPOS>BOND
     1    1    2 1   
     2    1    4 1   
     3    1    5 1   
     4    1    6 1   
     5    2    3 2   
     6    2    7 1   
     7    7    8 1   
     8    7   15 1   
     9    8    9 1   
    10    8   11 1   
    11    8   16 1   
    12    9   10 2   
    13    9   19 1   
    14   11   12 1   
    15   11   17 1   
    16   11   18 1   
    17   12   13 1   
    18   12   14 1   
    19   19   20 1   
    20   19   28 1   
    21   20   21 1   
    22   20   23 1   
    23   20   29 1   
    24   21   22 2   
    25   21   41 1   
    26   23   24 1   
    27   23   30 1   
    28   23   31 1   
    29   24   25 1   
    30   24   32 1   
    31   24   33 1   
    32   25   26 1   
    33   25   34 1   
    34   25   35 1   
    35   26   27 1   
    36   26   36 1   
    37   26   37 1   
    38   27   38 1   
    39   27   39 1   
    40   27   40 1   
    41   41   42 1   
    42   41   49 1   
    43   42   43 1   
    44   42   45 1   
    45   42   50 1   
    46   43   44 2   
    47   43   53 1   
    48   45   46 1   
    49   45   51 1   
    50   45   52 1   
    51   46   47 1   
    52   46   48 1   
    53   53   54 1   
    54   53   57 1   
    55   54   55 1   
    56   54   58 1   
    57   54   59 1   
    58   55   56 2   
    59   55   60 1   
    60   60   61 1   
    61   60   68 1   
    62   61   62 1   
    63   61   64 1   
    64   61   69 1   
    65   62   63 2   
    66   62   72 1   
    67   64   65 1   
    68   64   70 1   
    69   64   71 1   
    70   65   66 1   
    71   65   67 1   
    72   72   73 1   
    73   72   76 1   
    74   73   74 1   
    75   73   77 1   
    76   73   78 1   
    77   74   75 2   
    78   74   79 1   
    79   79   80 1   
    80   79   86 1   
    81   80   81 1   
    82   80   83 1   
    83   80   87 1   
    84   81   82 2   
    85   81   93 1   
    86   83   84 1   
    87   83   85 1   
    88   83   88 1   
    89   84   90 1   
    90   84   91 1   
    91   84   92 1   
    92   85   89 1   
    93   93   94 1   
    94   93  101 1   
    95   94   95 1   
    96   94   97 1   
    97   94  102 1   
    98   95   96 2   
    99   95  112 1   
   100   97   98 1   
   101   97   99 1   
   102   97  103 1   
   103   98  100 1   
   104   98  104 1   
   105   98  105 1   
   106   99  106 1   
   107   99  107 1   
   108   99  108 1   
   109  100  109 1   
   110  100  110 1   
   111  100  111 1   
   112  112  113 1   
   113  112  119 1   
   114  113  114 1   
   115  113  116 1   
   116  113  120 1   
   117  114  115 2   
   118  114  126 1   
   119  116  117 1   
   120  116  118 1   
   121  116  121 1   
   122  117  123 1   
   123  117  124 1   
   124  117  125 1   
   125  118  122 1   
   126  126  127 1   
   127  126  133 1   
   128  127  128 1   
   129  127  130 1   
   130  127  134 1   
   131  128  129 2   
   132  128  140 1   
   133  130  131 1   
   134  130  132 1   
   135  130  135 1   
   136  131  137 1   
   137  131  138 1   
   138  131  139 1   
   139  132  136 1   
   140  140  141 1   
   141  140  149 1   
   142  141  142 1   
   143  141  144 1   
   144  141  150 1   
   145  142  143 2   
   146  142  162 1   
   147  144  145 1   
   148  144  151 1   
   149  144  152 1   
   150  145  146 1   
   151  145  153 1   
   152  145  154 1   
   153  146  147 1   
   154  146  155 1   
   155  146  156 1   
   156  147  148 1   
   157  147  157 1   
   158  147  158 1   
   159  148  159 1   
   160  148  160 1   
   161  148  161 1   
   162  162  163 1   
   163  162  171 1   
   164  163  164 1   
   165  163  166 1   
   166  163  172 1   
   167  164  165 2   
   168  164  177 1   
   169  166  167 1   
   170  166  173 1   
   171  166  174 1   
   172  167  168 1   
   173  167  175 1   
   174  167  176 1   
   175  168  169 1   
   176  168  170 1   
   177  177  178 1   
   178  177  182 1   
   179  178  179 1   
   180  178  180 1   
   181  178  181 1   
   182  184  185 1   
   183  184  186 1   
   184  187  188 1   
   185  187  189 1   
@<TRIPOS>SUBSTRUCTURE
     1 MOL         1 TEMP              0 ****  ****    0 ROOT
