@<TRIPOS>MOLECULE
MOL
  189   185     1     0     0
SMALL
resp


@<TRIPOS>ATOM
      1 C1         -4.4370    4.2010    3.2080 c3        1 MOL     -0.530330
      2 C2         -5.1420    3.2640    2.1440 c         1 MOL      0.868716
      3 O1         -4.5800    2.7620    1.1820 o         1 MOL     -0.677015
      4 H1         -4.9330    5.1720    3.2220 hc        1 MOL      0.136788
      5 H2         -4.5050    3.7450    4.1970 hc        1 MOL      0.136788
      6 H3         -3.3890    4.3330    2.9400 hc        1 MOL      0.136788
      7 N1         -6.4420    2.9760    2.2760 n         1 MOL     -0.855397
      8 C3         -7.1550    1.8000    1.6820 c3        1 MOL      0.322752
      9 C4         -6.3300    0.5820    1.3880 c         1 MOL      0.132182
     10 O2         -5.9320    0.3410    0.2620 o         1 MOL     -0.182667
     11 C5         -8.0200    2.1420    0.4710 c3        1 MOL     -0.063934
     12 C6         -7.5760    3.2340   -0.5400 c         1 MOL      0.747209
     13 O3         -6.6040    2.9960   -1.2570 o         1 MOL     -0.735978
     14 O4         -8.3380    4.2070   -0.7570 o         1 MOL     -0.735978
     15 H4         -6.9550    3.5130    2.9510 hn        1 MOL      0.370527
     16 H5         -7.8650    1.4180    2.4070 h1        1 MOL      0.011266
     17 H6         -8.9540    2.4950    0.9010 hc        1 MOL     -0.007848
     18 H7         -8.3850    1.2850   -0.0910 hc        1 MOL     -0.007848
     19 N2         -5.9930   -0.0960    2.5010 n         1 MOL     -0.289825
     20 C7         -5.3530   -1.4090    2.6800 c3        1 MOL      0.037382
     21 C8         -5.9510   -2.5540    1.9330 c         1 MOL      0.255721
     22 O5         -6.2020   -3.6360    2.5150 o         1 MOL     -0.549196
     23 C9         -3.8310   -1.3370    2.3940 c3        1 MOL      0.100764
     24 C10        -3.0910   -2.3760    3.2970 c3        1 MOL      0.013870
     25 C11        -3.2000    0.0630    2.5810 c3        1 MOL     -0.243470
     26 C12        -3.0290   -2.1210    4.7670 c3        1 MOL     -0.078297
     27 H8         -6.3010    0.4080    3.3240 hn        1 MOL      0.235111
     28 H9         -5.5210   -1.6500    3.7350 h1        1 MOL      0.075625
     29 H10        -3.6740   -1.5820    1.3450 hc        1 MOL      0.015837
     30 H11        -2.0720   -2.3860    2.8950 hc        1 MOL      0.005253
     31 H12        -3.5070   -3.3740    3.1250 hc        1 MOL      0.005253
     32 H13        -3.4090    0.7390    1.7580 hc        1 MOL      0.060661
     33 H14        -3.6050    0.5530    3.4750 hc        1 MOL      0.060661
     34 H15        -2.1250   -0.0160    2.7110 hc        1 MOL      0.060661
     35 H16        -2.2310   -2.7770    5.1360 hc        1 MOL      0.003954
     36 H17        -2.7760   -1.0730    4.9140 hc        1 MOL      0.003954
     37 H18        -3.9630   -2.2200    5.3080 hc        1 MOL      0.003954
     38 N3         -6.4060   -2.4060    0.6730 n         1 MOL      0.106686
     39 C13        -7.2150   -3.4610   -0.0570 c3        1 MOL      0.011432
     40 C14        -6.4410   -4.7930   -0.4200 c         1 MOL      0.607574
     41 O6         -7.0870   -5.8280   -0.2670 o         1 MOL     -0.599266
     42 C15        -7.7500   -2.8660   -1.3370 c3        1 MOL     -0.219899
     43 C16        -8.4780   -1.5160   -1.1610 c         1 MOL      0.715142
     44 O7         -9.2920   -1.4730   -0.2170 o         1 MOL     -0.696093
     45 O8         -8.1740   -0.5890   -1.9710 o         1 MOL     -0.696093
     46 H19        -6.3640   -1.4720    0.2910 hn        1 MOL     -0.002299
     47 H20        -8.0000   -3.7010    0.6620 h1        1 MOL      0.060097
     48 H21        -8.4290   -3.5850   -1.7960 hc        1 MOL      0.057908
     49 H22        -6.9440   -2.7450   -2.0470 hc        1 MOL      0.057908
     50 N4         -5.1490   -4.8190   -0.7610 n         1 MOL     -0.607308
     51 C17        -4.2640   -3.6610   -1.0990 c3        1 MOL      0.177918
     52 C18        -4.2250   -3.5040   -2.5890 c         1 MOL      0.421933
     53 O9         -5.0210   -4.0570   -3.3650 o         1 MOL     -0.563641
     54 H23        -4.7370   -5.7430   -0.8630 hn        1 MOL      0.310147
     55 H24        -3.2660   -3.7460   -0.6520 h1        1 MOL      0.038875
     56 H25        -4.6340   -2.7340   -0.6670 h1        1 MOL      0.038875
     57 N5         -3.4200   -2.6310   -3.0770 n         1 MOL     -0.348126
     58 C19        -2.2120   -1.9560   -2.5640 c3        1 MOL      0.037103
     59 C20        -2.4020   -0.9910   -1.3620 c         1 MOL     -0.063184
     60 O10        -3.5490   -0.6700   -1.0510 o         1 MOL     -0.326355
     61 C21        -1.6400   -1.1630   -3.7370 c3        1 MOL     -0.534231
     62 C22        -2.6460   -0.0980   -4.2570 c         1 MOL      0.819320
     63 O11        -3.2210   -0.3610   -5.3240 o         1 MOL     -0.677322
     64 O12        -3.0140    0.8150   -3.4820 o         1 MOL     -0.677322
     65 H26        -3.6900   -2.3700   -4.0150 hn        1 MOL      0.316109
     66 H27        -1.5810   -2.8100   -2.3120 h1        1 MOL      0.128653
     67 H28        -1.2860   -1.8670   -4.5030 hc        1 MOL      0.129195
     68 H29        -0.7890   -0.5940   -3.3740 hc        1 MOL      0.129195
     69 N6         -1.3870   -0.6110   -0.6490 n         1 MOL     -0.175719
     70 C23        -0.0140   -1.1250   -0.6440 c3        1 MOL      0.078379
     71 C24         0.1360   -2.6090   -0.2490 c         1 MOL      0.598254
     72 O13        -0.8350   -3.2960    0.1530 o         1 MOL     -0.502578
     73 H30        -1.5590    0.0090    0.1300 hn        1 MOL      0.209930
     74 H31         0.6610   -0.5500   -0.0120 h1        1 MOL      0.042569
     75 H32         0.3900   -0.9970   -1.6470 h1        1 MOL      0.042569
     76 N7          1.4010   -2.9920   -0.4220 n         1 MOL     -0.634903
     77 C25         1.8390   -4.2990    0.2050 c3        1 MOL      0.130203
     78 C26         2.7690   -4.2020    1.4650 c         1 MOL      0.397797
     79 O14         3.3390   -5.1450    2.0110 o         1 MOL     -0.546424
     80 C27         2.2260   -5.3870   -0.8680 c3        1 MOL     -0.236981
     81 C28         3.5530   -5.1300   -1.5850 c3        1 MOL     -0.068585
     82 C29         3.9110   -3.6860   -1.9480 c         1 MOL      0.519848
     83 N8          3.3960   -3.1400   -3.0320 n         1 MOL     -0.696852
     84 O15         4.6720   -3.0630   -1.1860 o         1 MOL     -0.527904
     85 H33         2.1050   -2.3350   -0.7200 hn        1 MOL      0.324233
     86 H34         0.9600   -4.7020    0.6970 h1        1 MOL      0.080576
     87 H35         1.3970   -5.4290   -1.5770 hc        1 MOL      0.113879
     88 H36         2.3060   -6.3330   -0.3380 hc        1 MOL      0.113879
     89 H37         3.5590   -5.7040   -2.5110 hc        1 MOL      0.040666
     90 H38         4.4070   -5.4810   -1.0140 hc        1 MOL      0.040666
     91 H39         2.8040   -3.6770   -3.6430 hn        1 MOL      0.372573
     92 H40         3.4440   -2.1400   -3.1920 hn        1 MOL      0.372573
     93 N9          3.0010   -2.9950    1.9800 n         1 MOL      0.004146
     94 C30         3.6440   -2.6730    3.2180 c3        1 MOL     -0.162366
     95 C31         5.0910   -2.1720    3.0940 c         1 MOL      0.567340
     96 O16         5.7340   -2.1370    4.1640 o         1 MOL     -0.560351
     97 C32         2.7660   -1.7950    4.1290 c3        1 MOL     -0.006959
     98 C33         1.5160   -2.4900    4.5360 c3        1 MOL     -0.123942
     99 C34         2.2010   -0.5080    3.5220 c3        1 MOL     -0.123942
    100 H41         2.5060   -2.2580    1.4900 hn        1 MOL      0.100781
    101 H42         3.7950   -3.5750    3.8150 h1        1 MOL      0.150813
    102 H43         3.3060   -1.6120    5.0570 hc        1 MOL      0.060425
    103 H44         0.9080   -2.7210    3.6610 hc        1 MOL      0.033176
    104 H45         1.8740   -3.4800    4.8290 hc        1 MOL      0.033176
    105 H46         0.9500   -1.9970    5.3280 hc        1 MOL      0.033176
    106 H47         1.6470    0.1330    4.2110 hc        1 MOL      0.033176
    107 H48         2.9400    0.1260    3.0370 hc        1 MOL      0.033176
    108 H49         1.4960   -0.8120    2.7550 hc        1 MOL      0.033176
    109 N10         5.5560   -1.8720    1.8950 n         1 MOL     -0.356194
    110 C35         6.9260   -1.4730    1.6890 c3        1 MOL      0.137611
    111 C36         7.1100   -0.0420    1.1340 c         1 MOL      0.425840
    112 O17         8.1710    0.5570    1.3720 o         1 MOL     -0.521085
    113 C37         7.5120   -2.5260    0.7350 c3        1 MOL     -0.216337
    114 C38         7.2160   -3.9880    1.1340 c         1 MOL      0.541225
    115 N11         6.1350   -4.5630    0.6220 n         1 MOL     -0.795546
    116 O18         7.7740   -4.6400    1.9550 o         1 MOL     -0.539221
    117 H50         5.0010   -2.0360    1.0710 hn        1 MOL      0.249128
    118 H51         7.5720   -1.5630    2.5690 h1        1 MOL      0.070739
    119 H52         8.5760   -2.3130    0.6630 hc        1 MOL      0.092781
    120 H53         7.0470   -2.3470   -0.2330 hc        1 MOL      0.092781
    121 H54         5.6740   -4.0540   -0.1240 hn        1 MOL      0.382274
    122 H55         5.8880   -5.4690    1.0060 hn        1 MOL      0.382274
    123 N12         6.0880    0.4610    0.4250 n         1 MOL     -0.499022
    124 C39         6.1010    1.7390   -0.2770 c3        1 MOL      0.513944
    125 C40         4.7950    2.5570   -0.2310 c         1 MOL      0.370874
    126 O19         3.7190    1.9900   -0.0350 o         1 MOL     -0.437628
    127 C41         6.5550    1.4220   -1.7530 c3        1 MOL     -0.163171
    128 C42         7.7810    0.5580   -1.9960 ca        1 MOL      0.202959
    129 C43         9.0090    1.1410   -1.5160 ca        1 MOL     -0.282341
    130 C44         7.7330   -0.6280   -2.7390 ca        1 MOL     -0.282341
    131 C45        10.2080    0.2810   -1.6680 ca        1 MOL     -0.169336
    132 C46         8.9590   -1.3110   -3.0200 ca        1 MOL     -0.169336
    133 C47        10.1840   -0.8640   -2.5000 ca        1 MOL      0.226159
    134 O20        11.2950   -1.6360   -2.7100 oh        1 MOL     -0.486022
    135 H56         5.2320   -0.0830    0.4200 hn        1 MOL      0.170506
    136 H57         6.8820    2.4060    0.1090 h1        1 MOL     -0.069895
    137 H58         6.8210    2.3810   -2.1990 hc        1 MOL      0.052631
    138 H59         5.7080    1.0020   -2.3020 hc        1 MOL      0.052631
    139 H60         9.0520    2.0480   -0.9310 ha        1 MOL      0.178097
    140 H61         6.7870   -0.9250   -3.1730 ha        1 MOL      0.178097
    141 H62        11.1510    0.5640   -1.2240 ha        1 MOL      0.125139
    142 H63         8.8310   -2.2120   -3.5940 ha        1 MOL      0.125139
    143 H64        12.0840   -1.2000   -2.3870 ho        1 MOL      0.359698
    144 N13         4.9060    3.8710   -0.3590 n         1 MOL     -0.631086
    145 C48         3.8700    4.9200   -0.7060 c3        1 MOL      0.009076
    146 C49         2.7760    5.2070    0.3310 c         1 MOL      0.434617
    147 O21         2.4090    6.3390    0.5220 o         1 MOL     -0.489576
    148 C50         3.2000    4.5860   -2.0640 c3        1 MOL      0.104567
    149 C51         4.2830    4.4300   -3.1430 c3        1 MOL     -0.132264
    150 C52         3.7160    4.1630   -4.5140 c         1 MOL      0.679261
    151 O22         3.1720    5.0920   -5.1240 o         1 MOL     -0.726602
    152 O23         3.7490    3.0210   -4.9990 o         1 MOL     -0.726602
    153 H65         5.8230    4.3130   -0.3570 hn        1 MOL      0.367171
    154 H66         4.4920    5.8180   -0.6920 h1        1 MOL      0.079452
    155 H67         2.5330    5.4100   -2.2990 hc        1 MOL      0.044916
    156 H68         2.6900    3.6320   -2.0060 hc        1 MOL      0.044916
    157 H69         4.9820    3.6730   -2.8190 hc        1 MOL     -0.028150
    158 H70         4.7790    5.3890   -3.2600 hc        1 MOL     -0.028150
    159 N14         2.3580    4.1720    1.1530 n         1 MOL     -0.392135
    160 C53         1.2630    4.3710    2.1030 c3        1 MOL      0.050592
    161 C54         1.7890    5.0460    3.3890 c         1 MOL      0.449134
    162 O24         1.0310    5.8670    3.9470 o         1 MOL     -0.545168
    163 C55         0.5990    2.9900    2.4200 c3        1 MOL     -0.062413
    164 C56         0.1000    2.2160    1.2290 c3        1 MOL      0.377565
    165 C57        -0.9940    2.9700    0.3510 c         1 MOL      0.460303
    166 O25        -1.9570    2.3090   -0.1310 o         1 MOL     -0.596038
    167 O26        -0.8210    4.1650    0.0090 o         1 MOL     -0.596038
    168 H71         2.9070    3.3300    1.0620 hn        1 MOL      0.259479
    169 H72         0.4960    5.0900    1.8050 h1        1 MOL      0.116678
    170 H73        -0.3030    3.1970    3.0030 hc        1 MOL     -0.006147
    171 H74         1.2140    2.3170    3.0340 hc        1 MOL     -0.006147
    172 H75        -0.3550    1.3190    1.6380 hc        1 MOL     -0.134242
    173 H76         0.9740    1.9250    0.6510 hc        1 MOL     -0.134242
    174 N15         3.0430    4.8460    3.8500 n         1 MOL     -0.259762
    175 C58         3.5940    5.5980    5.0080 c3        1 MOL     -0.268197
    176 H77         3.2130    6.6190    4.9910 h1        1 MOL      0.110798
    177 H78         3.2920    5.1130    5.9350 h1        1 MOL      0.110798
    178 H79         4.6830    5.6180    4.9440 h1        1 MOL      0.110798
    179 H80         3.5900    4.1020    3.4560 hn        1 MOL      0.231570
    180 Ca1        -4.1790    1.8720   -1.3000 Ca        1 MOL      1.720844
    181 O27        -5.9110    0.4800   -2.7120 oh        1 MOL     -0.832042
    182 H81        -5.8950    0.1570   -3.6120 ho        1 MOL      0.393838
    183 H82        -6.6800    0.0570   -2.3250 ho        1 MOL      0.393838
    184 O28        -4.1330    3.7800   -3.3980 oh        1 MOL     -0.832042
    185 H83        -3.5220    4.0240   -4.1000 ho        1 MOL      0.393838
    186 H84        -4.1880    4.5590   -2.8460 ho        1 MOL      0.393838
    187 O29        -3.3940    4.6610   -1.0350 oh        1 MOL     -0.832042
    188 H85        -2.5810    4.6220   -0.5320 ho        1 MOL      0.393838
    189 H86        -3.7030    5.5580   -0.9280 ho        1 MOL      0.393838
@<TRIPOS>BOND
     1    1    2 1   
     2    1    4 1   
     3    1    5 1   
     4    1    6 1   
     5    2    3 2   
     6    2    7 1   
     7    7    8 1   
     8    7   15 1   
     9    8    9 1   
    10    8   11 1   
    11    8   16 1   
    12    9   10 2   
    13    9   19 1   
    14   11   12 1   
    15   11   17 1   
    16   11   18 1   
    17   12   13 1   
    18   12   14 1   
    19   19   20 1   
    20   19   27 1   
    21   20   21 1   
    22   20   23 1   
    23   20   28 1   
    24   21   22 2   
    25   21   38 1   
    26   23   24 1   
    27   23   25 1   
    28   23   29 1   
    29   24   26 1   
    30   24   30 1   
    31   24   31 1   
    32   25   32 1   
    33   25   33 1   
    34   25   34 1   
    35   26   35 1   
    36   26   36 1   
    37   26   37 1   
    38   38   39 1   
    39   38   46 1   
    40   39   40 1   
    41   39   42 1   
    42   39   47 1   
    43   40   41 2   
    44   40   50 1   
    45   42   43 1   
    46   42   48 1   
    47   42   49 1   
    48   43   44 1   
    49   43   45 1   
    50   50   51 1   
    51   50   54 1   
    52   51   52 1   
    53   51   55 1   
    54   51   56 1   
    55   52   53 2   
    56   52   57 1   
    57   57   58 1   
    58   57   65 1   
    59   58   59 1   
    60   58   61 1   
    61   58   66 1   
    62   59   60 2   
    63   59   69 1   
    64   61   62 1   
    65   61   67 1   
    66   61   68 1   
    67   62   63 1   
    68   62   64 1   
    69   69   70 1   
    70   69   73 1   
    71   70   71 1   
    72   70   74 1   
    73   70   75 1   
    74   71   72 2   
    75   71   76 1   
    76   76   77 1   
    77   76   85 1   
    78   77   78 1   
    79   77   80 1   
    80   77   86 1   
    81   78   79 2   
    82   78   93 1   
    83   80   81 1   
    84   80   87 1   
    85   80   88 1   
    86   81   82 1   
    87   81   89 1   
    88   81   90 1   
    89   82   83 1   
    90   82   84 2   
    91   83   91 1   
    92   83   92 1   
    93   93   94 1   
    94   93  100 1   
    95   94   95 1   
    96   94   97 1   
    97   94  101 1   
    98   95   96 2   
    99   95  109 1   
   100   97   98 1   
   101   97   99 1   
   102   97  102 1   
   103   98  103 1   
   104   98  104 1   
   105   98  105 1   
   106   99  106 1   
   107   99  107 1   
   108   99  108 1   
   109  109  110 1   
   110  109  117 1   
   111  110  111 1   
   112  110  113 1   
   113  110  118 1   
   114  111  112 2   
   115  111  123 1   
   116  113  114 1   
   117  113  119 1   
   118  113  120 1   
   119  114  115 1   
   120  114  116 2   
   121  115  121 1   
   122  115  122 1   
   123  123  124 1   
   124  123  135 1   
   125  124  125 1   
   126  124  127 1   
   127  124  136 1   
   128  125  126 2   
   129  125  144 1   
   130  127  128 1   
   131  127  137 1   
   132  127  138 1   
   133  128  129 ar  
   134  128  130 ar  
   135  129  131 ar  
   136  129  139 1   
   137  130  132 ar  
   138  130  140 1   
   139  131  133 ar  
   140  131  141 1   
   141  132  133 ar  
   142  132  142 1   
   143  133  134 1   
   144  134  143 1   
   145  144  145 1   
   146  144  153 1   
   147  145  146 1   
   148  145  148 1   
   149  145  154 1   
   150  146  147 2   
   151  146  159 1   
   152  148  149 1   
   153  148  155 1   
   154  148  156 1   
   155  149  150 1   
   156  149  157 1   
   157  149  158 1   
   158  150  151 1   
   159  150  152 1   
   160  159  160 1   
   161  159  168 1   
   162  160  161 1   
   163  160  163 1   
   164  160  169 1   
   165  161  162 2   
   166  161  174 1   
   167  163  164 1   
   168  163  170 1   
   169  163  171 1   
   170  164  165 1   
   171  164  172 1   
   172  164  173 1   
   173  165  166 1   
   174  165  167 1   
   175  174  175 1   
   176  174  179 1   
   177  175  176 1   
   178  175  177 1   
   179  175  178 1   
   180  181  182 1   
   181  181  183 1   
   182  184  185 1   
   183  184  186 1   
   184  187  188 1   
   185  187  189 1   
@<TRIPOS>SUBSTRUCTURE
     1 MOL         1 TEMP              0 ****  ****    0 ROOT
