@<TRIPOS>MOLECULE
MOL
  181   177     1     0     0
SMALL
resp


@<TRIPOS>ATOM
      1 C1          7.6770    2.9760    5.7660 c3        1 MOL     -0.306408
      2 C2          6.7180    2.1540    4.9580 c         1 MOL      0.643827
      3 O1          5.5810    1.9550    5.2490 o         1 MOL     -0.562779
      4 H1          7.9650    2.4230    6.6600 hc        1 MOL      0.066613
      5 H2          8.5640    3.1900    5.1700 hc        1 MOL      0.066613
      6 H3          7.1990    3.9120    6.0560 hc        1 MOL      0.066613
      7 N1          7.1660    1.5500    3.8770 n         1 MOL     -0.422371
      8 C3          8.5470    1.3370    3.2640 c3        1 MOL      0.144538
      9 C4          9.0170   -0.1440    3.2580 c         1 MOL      0.330671
     10 O2          8.4530   -0.9900    3.9350 o         1 MOL     -0.450956
     11 C5          8.6950    2.1110    1.9940 c3        1 MOL     -0.031590
     12 C6          7.7750    1.7510    0.8970 c         1 MOL      0.562409
     13 O3          6.6420    2.3370    0.7010 o         1 MOL     -0.731459
     14 O4          8.0260    0.8380    0.1300 o         1 MOL     -0.731459
     15 H4          6.5830    0.7850    3.5720 hn        1 MOL      0.344172
     16 H5          9.3130    1.8210    3.8720 h1        1 MOL      0.015555
     17 H6          9.7270    2.1650    1.6470 hc        1 MOL     -0.000827
     18 H7          8.5900    3.1680    2.2670 hc        1 MOL     -0.000827
     19 N2          9.8730   -0.4870    2.3060 n         1 MOL     -0.404562
     20 C7         10.1210   -1.8730    1.9550 c3        1 MOL      0.384965
     21 C8          8.8590   -2.6940    1.5800 c         1 MOL      0.250854
     22 O5          8.7850   -3.8880    1.8540 o         1 MOL     -0.505124
     23 C9         11.0860   -2.5410    2.8480 c3        1 MOL     -0.288042
     24 H8         10.4960    0.1520    1.8290 hn        1 MOL      0.257286
     25 H9         10.5760   -1.7800    0.9690 h1        1 MOL     -0.031144
     26 H10        12.0920   -2.1900    2.6340 hc        1 MOL      0.064703
     27 H11        11.0100   -2.1120    3.8440 hc        1 MOL      0.064703
     28 H12        11.0640   -3.6240    2.9650 hc        1 MOL      0.064703
     29 N3          7.8600   -2.1090    0.9180 n         1 MOL      0.048181
     30 C10         6.6770   -2.7450    0.3630 c3        1 MOL     -0.114158
     31 C11         6.5450   -2.5230   -1.1450 c         1 MOL      0.366858
     32 O6          6.6780   -1.3990   -1.5910 o         1 MOL     -0.479104
     33 C12         5.4810   -2.4260    1.3070 c3        1 MOL     -0.048195
     34 C13         5.3180   -0.8950    1.4420 c         1 MOL      0.680994
     35 O7          5.6580   -0.3400    2.5280 o         1 MOL     -0.681929
     36 O8          4.9610   -0.1720    0.4460 o         1 MOL     -0.681929
     37 H13         8.0710   -1.1930    0.5610 hn        1 MOL      0.101323
     38 H14         6.9270   -3.7900    0.5310 h1        1 MOL      0.026608
     39 H15         5.5520   -2.9480    2.2610 hc        1 MOL      0.036757
     40 H16         4.5410   -2.8120    0.9110 hc        1 MOL      0.036757
     41 N4          6.2120   -3.6100   -1.8730 n         1 MOL     -0.197334
     42 C14         6.0120   -3.5230   -3.3060 c3        1 MOL     -0.607793
     43 C15         4.7490   -2.9500   -3.7160 c         1 MOL      0.676176
     44 O9          4.5650   -2.4690   -4.8080 o         1 MOL     -0.575589
     45 H17         5.9530   -4.4620   -1.3950 hn        1 MOL      0.279363
     46 H18         5.8770   -4.5420   -3.6730 h1        1 MOL      0.234827
     47 H19         6.7820   -2.8930   -3.7470 h1        1 MOL      0.234827
     48 N5          3.7920   -2.8160   -2.8280 n         1 MOL     -0.353419
     49 C16         2.4690   -2.0890   -3.0220 c3        1 MOL     -0.154316
     50 C17         2.5120   -0.6110   -2.7220 c         1 MOL      0.912046
     51 O10         3.4840   -0.1540   -2.0930 o         1 MOL     -0.701800
     52 C18         1.4360   -2.7470   -2.0760 c3        1 MOL     -0.243812
     53 C19         0.9450   -4.1390   -2.4770 c         1 MOL      0.701449
     54 N6          0.4820   -4.8760   -1.5490 n         1 MOL     -0.806972
     55 O11         0.8660   -4.5040   -3.6630 o         1 MOL     -0.572907
     56 H20         4.0160   -3.1700   -1.9060 hn        1 MOL      0.264331
     57 H21         2.1680   -2.1260   -4.0710 h1        1 MOL      0.132344
     58 H22         0.5420   -2.1270   -2.0720 hc        1 MOL      0.065533
     59 H23         1.7680   -2.9230   -1.0490 hc        1 MOL      0.065533
     60 H24         0.5790   -4.6600   -0.5610 hn        1 MOL      0.389838
     61 H25        -0.1620   -5.5890   -1.8650 hn        1 MOL      0.389838
     62 N7          1.5030    0.1680   -3.1350 n         1 MOL     -0.798707
     63 C20         1.2650    1.5000   -2.6090 c3        1 MOL      0.495900
     64 C21         0.6920    2.4520   -3.6830 c         1 MOL      0.583798
     65 O12         0.7670    2.0380   -4.8360 o         1 MOL     -0.561254
     66 H26         0.6850   -0.3000   -3.5040 hn        1 MOL      0.378821
     67 H27         2.2280    1.8630   -2.2510 h1        1 MOL     -0.062363
     68 H28         0.5750    1.4270   -1.7710 h1        1 MOL     -0.062363
     69 N8          0.0460    3.6000   -3.3910 n         1 MOL     -0.639884
     70 C22        -0.1230    4.0260   -2.0010 c3        1 MOL     -0.084360
     71 C23        -1.5520    3.6850   -1.4020 c         1 MOL      0.610979
     72 O13        -2.6010    3.8110   -2.0750 o         1 MOL     -0.525833
     73 C24         0.0820    5.5310   -1.9740 c3        1 MOL      0.375210
     74 C25        -0.2620    6.1060   -0.6610 c3        1 MOL     -0.310636
     75 O14         1.4140    5.9030   -2.2920 oh        1 MOL     -0.685115
     76 H29        -0.2450    4.2980   -4.0610 hn        1 MOL      0.371463
     77 H30         0.6590    3.5940   -1.3650 h1        1 MOL      0.127607
     78 H31        -0.5780    5.9590   -2.7190 h1        1 MOL      0.000502
     79 H32         1.4430    6.7810   -2.6710 ho        1 MOL      0.409901
     80 H33         0.4150    5.7900    0.1390 hc        1 MOL      0.085733
     81 H34        -0.0730    7.1780   -0.7570 hc        1 MOL      0.085733
     82 H35        -1.2850    5.8750   -0.3700 hc        1 MOL      0.085733
     83 N9         -1.5650    3.2850   -0.1700 n         1 MOL     -0.480379
     84 C26        -2.7450    2.9270    0.6560 c3        1 MOL     -0.055849
     85 C27        -3.4740    4.0780    1.2500 c         1 MOL      0.556629
     86 O15        -2.8780    4.6940    2.1430 o         1 MOL     -0.612220
     87 C28        -2.3520    1.8810    1.8170 c3        1 MOL      0.220500
     88 C29        -1.7520    0.6620    1.0640 c3        1 MOL      0.110996
     89 C30        -3.5560    1.4810    2.6610 c3        1 MOL     -0.240002
     90 C31        -1.1390   -0.3380    2.0790 c3        1 MOL     -0.282200
     91 H36        -0.6640    3.0020    0.1870 hn        1 MOL      0.233885
     92 H37        -3.3150    2.3380   -0.0640 h1        1 MOL      0.112846
     93 H38        -1.5380    2.2770    2.4170 hc        1 MOL      0.009184
     94 H39        -0.9060    0.9510    0.4370 hc        1 MOL     -0.035201
     95 H40        -2.4980    0.1530    0.4580 hc        1 MOL     -0.035201
     96 H41        -3.1700    0.8700    3.4700 hc        1 MOL      0.065758
     97 H42        -3.8660    2.4340    3.0960 hc        1 MOL      0.065758
     98 H43        -4.3480    1.0290    2.0590 hc        1 MOL      0.065758
     99 H44        -1.9650   -0.9450    2.4630 hc        1 MOL      0.054891
    100 H45        -0.4000   -0.9950    1.6260 hc        1 MOL      0.054891
    101 H46        -0.6100    0.2120    2.8550 hc        1 MOL      0.054891
    102 N10        -4.7220    4.4380    1.0150 n         1 MOL     -0.387413
    103 C32        -5.6140    3.8290    0.0280 c3        1 MOL      0.267727
    104 C33        -6.4920    2.7440    0.6940 c         1 MOL      0.499955
    105 O16        -6.3390    2.4420    1.8670 o         1 MOL     -0.552093
    106 C34        -6.4000    4.8220   -0.8230 c3        1 MOL     -0.331791
    107 C35        -7.3270    5.8310   -0.1650 c         1 MOL      0.785008
    108 O17        -7.9170    6.6080   -0.9310 o         1 MOL     -0.738980
    109 O18        -7.4150    5.8950    1.0700 o         1 MOL     -0.738980
    110 H47        -5.1090    5.1310    1.6410 hn        1 MOL      0.287464
    111 H48        -4.9920    3.2710   -0.6610 h1        1 MOL     -0.029758
    112 H49        -7.1550    4.1770   -1.2710 hc        1 MOL      0.043520
    113 H50        -5.7020    5.3120   -1.4990 hc        1 MOL      0.043520
    114 N11        -7.3140    1.9950   -0.0680 n         1 MOL     -0.527392
    115 C36        -7.9160    0.7340    0.3430 c3        1 MOL      0.302190
    116 C37        -8.2160   -0.1880   -0.9020 c         1 MOL      0.223255
    117 O19        -8.7880    0.4600   -1.7980 o         1 MOL     -0.525125
    118 C38        -9.2600    1.0130    1.0310 c3        1 MOL     -0.253042
    119 C39        -9.8640   -0.2010    1.6400 ca        1 MOL      0.009745
    120 C40       -10.8330   -0.9330    0.9490 ca        1 MOL     -0.082911
    121 C41        -9.5050   -0.6620    2.9090 ca        1 MOL     -0.082911
    122 C42       -11.3970   -2.0850    1.4210 ca        1 MOL     -0.182145
    123 C43       -10.1530   -1.7630    3.5210 ca        1 MOL     -0.182145
    124 C44       -11.0480   -2.5510    2.7500 ca        1 MOL     -0.089706
    125 H51        -7.3700    2.2330   -1.0490 hn        1 MOL      0.318243
    126 H52        -7.2060    0.1990    0.9720 h1        1 MOL      0.007913
    127 H53        -9.9450    1.5470    0.3680 hc        1 MOL      0.123418
    128 H54        -9.1030    1.6530    1.8900 hc        1 MOL      0.123418
    129 H55       -11.2250   -0.5040    0.0360 ha        1 MOL      0.102466
    130 H56        -8.7280   -0.0510    3.3600 ha        1 MOL      0.102466
    131 H57       -11.9350   -2.6390    0.6740 ha        1 MOL      0.119759
    132 H58        -9.9640   -2.0160    4.5540 ha        1 MOL      0.119759
    133 H59       -11.6620   -3.3240    3.1880 ha        1 MOL      0.092631
    134 N12        -8.1470   -1.5030   -0.8550 n         1 MOL      0.011772
    135 C45        -7.4990   -2.3070    0.1710 c3        1 MOL      0.306461
    136 C46        -5.9740   -2.1610    0.2850 c         1 MOL      0.279801
    137 O20        -5.3930   -1.0940    0.0290 o         1 MOL     -0.486978
    138 C47        -7.8770   -3.7380   -0.3380 c3        1 MOL     -0.263289
    139 C48        -9.1900   -3.6170   -1.0020 c3        1 MOL      0.126926
    140 C49        -8.9310   -2.3400   -1.8090 c3        1 MOL      0.015500
    141 H60        -7.9550   -2.0780    1.1400 h1        1 MOL     -0.033428
    142 H61        -7.1700   -4.1120   -1.0770 hc        1 MOL      0.063923
    143 H62        -7.8890   -4.3860    0.5380 hc        1 MOL      0.063923
    144 H63        -9.4670   -4.4040   -1.6990 hc        1 MOL     -0.021621
    145 H64       -10.0690   -3.4580   -0.3720 hc        1 MOL     -0.021621
    146 H65        -8.2990   -2.4600   -2.6940 h1        1 MOL      0.037634
    147 H66        -9.9320   -2.0530   -2.1450 h1        1 MOL      0.037634
    148 N13        -5.2920   -3.2090    0.8700 n         1 MOL     -0.367395
    149 C50        -3.8250   -3.1830    1.0430 c3        1 MOL      0.261115
    150 C51        -3.3250   -3.9740    2.2660 c         1 MOL      0.288626
    151 O21        -2.2630   -4.6660    2.1890 o         1 MOL     -0.520958
    152 C52        -3.1420   -3.4530   -0.3580 c3        1 MOL     -0.224622
    153 C53        -3.1730   -4.8660   -0.9630 c3        1 MOL     -0.006677
    154 C54        -4.4800   -5.3390   -1.3530 c         1 MOL      0.741937
    155 O22        -5.0600   -4.9580   -2.4090 o         1 MOL     -0.739450
    156 O23        -4.9300   -6.2810   -0.6430 o         1 MOL     -0.739450
    157 H67        -5.6680   -4.1390    0.9580 hn        1 MOL      0.241337
    158 H68        -3.6300   -2.1380    1.2850 h1        1 MOL      0.129028
    159 H69        -2.0990   -3.2260   -0.1650 hc        1 MOL      0.069073
    160 H70        -3.4370   -2.7230   -1.1090 hc        1 MOL      0.069073
    161 H71        -2.5570   -5.5430   -0.3650 hc        1 MOL     -0.020269
    162 H72        -2.5480   -4.8060   -1.8550 hc        1 MOL     -0.020269
    163 N14        -4.0220   -4.0900    3.4350 n         1 MOL     -0.311308
    164 C55        -5.0030   -3.1090    3.9640 c3        1 MOL     -0.102188
    165 H73        -4.8920   -3.0330    5.0450 h1        1 MOL      0.062995
    166 H74        -4.8230   -2.1340    3.5120 h1        1 MOL      0.062995
    167 H75        -6.0140   -3.4400    3.7260 h1        1 MOL      0.062995
    168 H76        -3.7120   -4.8120    4.0750 hn        1 MOL      0.278836
    169 Ca1         5.8200    1.1620   -1.4850 Ca        1 MOL      1.795680
    170 O24         4.4510    2.5180   -3.5750 oh        1 MOL     -0.821796
    171 H77         4.2380    3.4160   -3.3080 ho        1 MOL      0.407572
    172 H78         3.9600    2.3810   -4.3830 ho        1 MOL      0.407572
    173 O25         4.5050    3.5340   -0.8870 oh        1 MOL     -0.821796
    174 H79         5.0890    3.7960   -0.1800 ho        1 MOL      0.407572
    175 H80         4.3780    4.3340   -1.4030 ho        1 MOL      0.407572
    176 O26         7.6050    3.0740   -2.3700 oh        1 MOL     -0.821796
    177 H81         8.3850    2.7430   -2.8350 ho        1 MOL      0.407572
    178 H82         7.8520    3.9670   -2.1130 ho        1 MOL      0.407572
    179 O27         6.5560    0.4420   -3.8290 oh        1 MOL     -0.821796
    180 H83         6.4890    0.9720   -4.6210 ho        1 MOL      0.407572
    181 H84         7.0570   -0.3230   -4.0890 ho        1 MOL      0.407572
@<TRIPOS>BOND
     1    1    2 1   
     2    1    4 1   
     3    1    5 1   
     4    1    6 1   
     5    2    3 2   
     6    2    7 1   
     7    7    8 1   
     8    7   15 1   
     9    8    9 1   
    10    8   11 1   
    11    8   16 1   
    12    9   10 2   
    13    9   19 1   
    14   11   12 1   
    15   11   17 1   
    16   11   18 1   
    17   12   13 1   
    18   12   14 1   
    19   19   20 1   
    20   19   24 1   
    21   20   21 1   
    22   20   23 1   
    23   20   25 1   
    24   21   22 2   
    25   21   29 1   
    26   23   26 1   
    27   23   27 1   
    28   23   28 1   
    29   29   30 1   
    30   29   37 1   
    31   30   31 1   
    32   30   33 1   
    33   30   38 1   
    34   31   32 2   
    35   31   41 1   
    36   33   34 1   
    37   33   39 1   
    38   33   40 1   
    39   34   35 1   
    40   34   36 1   
    41   41   42 1   
    42   41   45 1   
    43   42   43 1   
    44   42   46 1   
    45   42   47 1   
    46   43   44 2   
    47   43   48 1   
    48   48   49 1   
    49   48   56 1   
    50   49   50 1   
    51   49   52 1   
    52   49   57 1   
    53   50   51 2   
    54   50   62 1   
    55   52   53 1   
    56   52   58 1   
    57   52   59 1   
    58   53   54 1   
    59   53   55 2   
    60   54   60 1   
    61   54   61 1   
    62   62   63 1   
    63   62   66 1   
    64   63   64 1   
    65   63   67 1   
    66   63   68 1   
    67   64   65 2   
    68   64   69 1   
    69   69   70 1   
    70   69   76 1   
    71   70   71 1   
    72   70   73 1   
    73   70   77 1   
    74   71   72 2   
    75   71   83 1   
    76   73   74 1   
    77   73   75 1   
    78   73   78 1   
    79   74   80 1   
    80   74   81 1   
    81   74   82 1   
    82   75   79 1   
    83   83   84 1   
    84   83   91 1   
    85   84   85 1   
    86   84   87 1   
    87   84   92 1   
    88   85   86 2   
    89   85  102 1   
    90   87   88 1   
    91   87   89 1   
    92   87   93 1   
    93   88   90 1   
    94   88   94 1   
    95   88   95 1   
    96   89   96 1   
    97   89   97 1   
    98   89   98 1   
    99   90   99 1   
   100   90  100 1   
   101   90  101 1   
   102  102  103 1   
   103  102  110 1   
   104  103  104 1   
   105  103  106 1   
   106  103  111 1   
   107  104  105 2   
   108  104  114 1   
   109  106  107 1   
   110  106  112 1   
   111  106  113 1   
   112  107  108 1   
   113  107  109 1   
   114  114  115 1   
   115  114  125 1   
   116  115  116 1   
   117  115  118 1   
   118  115  126 1   
   119  116  117 2   
   120  116  134 1   
   121  118  119 1   
   122  118  127 1   
   123  118  128 1   
   124  119  120 ar  
   125  119  121 ar  
   126  120  122 ar  
   127  120  129 1   
   128  121  123 ar  
   129  121  130 1   
   130  122  124 ar  
   131  122  131 1   
   132  123  124 ar  
   133  123  132 1   
   134  124  133 1   
   135  134  135 1   
   136  134  140 1   
   137  135  136 1   
   138  135  138 1   
   139  135  141 1   
   140  136  137 2   
   141  136  148 1   
   142  138  139 1   
   143  138  142 1   
   144  138  143 1   
   145  139  140 1   
   146  139  144 1   
   147  139  145 1   
   148  140  146 1   
   149  140  147 1   
   150  148  149 1   
   151  148  157 1   
   152  149  150 1   
   153  149  152 1   
   154  149  158 1   
   155  150  151 2   
   156  150  163 1   
   157  152  153 1   
   158  152  159 1   
   159  152  160 1   
   160  153  154 1   
   161  153  161 1   
   162  153  162 1   
   163  154  155 1   
   164  154  156 1   
   165  163  164 1   
   166  163  168 1   
   167  164  165 1   
   168  164  166 1   
   169  164  167 1   
   170  170  171 1   
   171  170  172 1   
   172  173  174 1   
   173  173  175 1   
   174  176  177 1   
   175  176  178 1   
   176  179  180 1   
   177  179  181 1   
@<TRIPOS>SUBSTRUCTURE
     1 MOL         1 TEMP              0 ****  ****    0 ROOT
