@<TRIPOS>MOLECULE
MOL
  182   178     1     0     0
SMALL
resp


@<TRIPOS>ATOM
      1 C1         -0.3050   -4.3630    5.7200 c3        1 MOL     -0.455065
      2 C2         -0.2200   -4.0250    4.2380 c         1 MOL      0.825122
      3 O1         -1.1890   -3.8780    3.4720 o         1 MOL     -0.681099
      4 H1          0.4030   -5.1590    5.9510 hc        1 MOL      0.133557
      5 H2         -0.0630   -3.4790    6.3100 hc        1 MOL      0.133557
      6 H3         -1.3150   -4.6960    5.9590 hc        1 MOL      0.133557
      7 N1          1.0270   -3.9100    3.8010 n         1 MOL     -0.626171
      8 C3          1.5650   -3.4990    2.4770 c3        1 MOL      0.262086
      9 C4          1.6670   -4.6970    1.4220 c         1 MOL      0.374914
     10 O2          1.9930   -5.8130    1.8450 o         1 MOL     -0.517286
     11 C5          2.8870   -2.7150    2.6070 c3        1 MOL     -0.068843
     12 C6          3.2720   -1.8250    1.4080 c         1 MOL      0.472841
     13 O3          4.0450   -0.8980    1.4820 o         1 MOL     -0.635928
     14 O4          2.7860   -2.0710    0.2630 o         1 MOL     -0.635928
     15 H4          1.7380   -3.9960    4.5100 hn        1 MOL      0.298045
     16 H5          0.8410   -2.8120    2.0470 h1        1 MOL     -0.010534
     17 H6          3.6480   -3.4740    2.8070 hc        1 MOL      0.052184
     18 H7          2.8690   -2.1740    3.5490 hc        1 MOL      0.052184
     19 N2          1.4570   -4.4450    0.0640 n         1 MOL     -0.144565
     20 C7          1.5450   -5.4190   -0.9770 c3        1 MOL     -0.071472
     21 C8          2.6990   -5.1660   -1.9440 c         1 MOL      0.602500
     22 O5          2.8490   -5.9910   -2.8430 o         1 MOL     -0.582592
     23 C9          0.2270   -5.6900   -1.6960 c3        1 MOL     -0.190538
     24 C10        -0.8860   -5.9900   -0.6750 c3        1 MOL      0.470937
     25 C11        -2.2730   -6.0670   -1.2440 c3        1 MOL     -0.199127
     26 C12        -3.4190   -6.0080   -0.1350 c3        1 MOL      0.044456
     27 N3         -4.7460   -5.9150   -0.7020 n4        1 MOL     -0.113961
     28 H8          1.3550   -3.4680   -0.1540 hn        1 MOL      0.206203
     29 H9          1.8800   -6.3120   -0.4420 h1        1 MOL      0.092454
     30 H10         0.3390   -6.5930   -2.2980 hc        1 MOL      0.041082
     31 H11        -0.0840   -4.8270   -2.2750 hc        1 MOL      0.041082
     32 H12        -0.8800   -5.2220    0.1020 hc        1 MOL     -0.090407
     33 H13        -0.7670   -6.9350   -0.1460 hc        1 MOL     -0.090407
     34 H14        -2.3670   -6.9460   -1.8780 hc        1 MOL      0.043631
     35 H15        -2.2870   -5.1490   -1.8280 hc        1 MOL      0.043631
     36 H16        -3.3770   -5.1210    0.5090 hx        1 MOL      0.072520
     37 H17        -3.4010   -6.8390    0.5650 hx        1 MOL      0.072520
     38 H18        -4.9820   -6.7960   -1.1310 hn        1 MOL      0.226414
     39 H19        -5.5230   -5.9330   -0.0650 hn        1 MOL      0.226414
     40 H20        -4.8330   -5.3440   -1.5260 hn        1 MOL      0.226414
     41 N4          3.5230   -4.2190   -1.7240 n         1 MOL     -0.297043
     42 C13         4.7920   -4.1360   -2.3890 c3        1 MOL     -0.071934
     43 C14         6.0270   -3.8480   -1.4260 c         1 MOL      0.420355
     44 O6          7.1830   -4.0390   -1.7810 o         1 MOL     -0.524490
     45 C15         4.7700   -3.0830   -3.5430 c3        1 MOL     -0.250310
     46 C16         4.2960   -1.7150   -3.0970 c         1 MOL      0.795942
     47 O7          4.6150   -1.2940   -1.9820 o         1 MOL     -0.745884
     48 O8          3.6170   -1.0470   -3.8560 o         1 MOL     -0.745884
     49 H21         3.3080   -3.5410   -1.0100 hn        1 MOL      0.101296
     50 H22         4.9920   -5.1060   -2.8480 h1        1 MOL      0.140157
     51 H23         4.1190   -3.5070   -4.3100 hc        1 MOL      0.083576
     52 H24         5.7690   -2.9820   -3.9690 hc        1 MOL      0.083576
     53 N5          5.7890   -3.3920   -0.2200 n         1 MOL     -0.144849
     54 C17         6.7890   -3.0970    0.8180 c3        1 MOL     -0.226368
     55 C18         7.4720   -1.7130    0.5460 c         1 MOL      0.575891
     56 O9          8.6840   -1.6240    0.8610 o         1 MOL     -0.563898
     57 H25         4.8420   -3.0910   -0.0490 hn        1 MOL      0.135699
     58 H26         7.5050   -3.9190    0.7920 h1        1 MOL      0.126105
     59 H27         6.2170   -3.0640    1.7440 h1        1 MOL      0.126105
     60 N6          6.8240   -0.7040   -0.0070 n         1 MOL     -0.282776
     61 C19         7.4590    0.6120   -0.0380 c3        1 MOL     -0.006378
     62 C20         6.4280    1.7870    0.1390 c         1 MOL      0.452183
     63 O10         5.2160    1.5660   -0.1650 o         1 MOL     -0.476483
     64 C21         8.1750    0.7570   -1.4120 c3        1 MOL     -0.164167
     65 C22         7.3310    0.8420   -2.6320 c         1 MOL      0.583702
     66 N7          7.3580   -0.1420   -3.5150 n         1 MOL     -0.758992
     67 O11         6.6070    1.8190   -2.8710 o         1 MOL     -0.569150
     68 H28         5.8200   -0.7600   -0.1260 hn        1 MOL      0.287808
     69 H29         8.2400    0.8060    0.6960 h1        1 MOL      0.067928
     70 H30         9.0250    0.0730   -1.4190 hc        1 MOL      0.073234
     71 H31         8.7030    1.7110   -1.3270 hc        1 MOL      0.073234
     72 H32         7.9480   -0.9290   -3.3010 hn        1 MOL      0.388640
     73 H33         6.7430   -0.0210   -4.3120 hn        1 MOL      0.388640
     74 N8          6.9750    2.9650    0.4560 n         1 MOL     -0.333674
     75 C23         6.2650    4.2460    0.3730 c3        1 MOL     -0.247614
     76 C24         5.0040    4.3440    1.1910 c         1 MOL      0.674755
     77 O12         4.9430    4.1110    2.3840 o         1 MOL     -0.536674
     78 H34         7.9080    2.9700    0.8380 hn        1 MOL      0.319581
     79 H35         6.1090    4.5100   -0.6750 h1        1 MOL      0.128817
     80 H36         6.8320    5.0230    0.8690 h1        1 MOL      0.128817
     81 N9          3.8480    4.5620    0.5340 n         1 MOL     -0.593696
     82 C25         2.4860    4.5330    1.1840 c3        1 MOL      0.141309
     83 C26         1.9890    3.1140    1.3820 c         1 MOL      0.667717
     84 O13         2.5620    2.2060    0.8230 o         1 MOL     -0.495322
     85 C27         1.5260    5.3230    0.3350 c3        1 MOL     -0.328733
     86 C28         1.9920    6.6870   -0.0200 ca        1 MOL      0.162665
     87 C29         1.8290    7.6500    1.0040 ca        1 MOL     -0.166545
     88 C30         2.2130    7.0660   -1.3650 ca        1 MOL     -0.166545
     89 C31         2.1460    8.9850    0.7620 ca        1 MOL     -0.249350
     90 C32         2.4080    8.4560   -1.6290 ca        1 MOL     -0.249350
     91 C33         2.3830    9.3780   -0.5910 ca        1 MOL      0.313615
     92 O14         2.7110   10.6640   -0.9560 oh        1 MOL     -0.489559
     93 H37         3.8030    4.5640   -0.4830 hn        1 MOL      0.299321
     94 H38         2.4920    5.0670    2.1390 h1        1 MOL      0.071918
     95 H39         0.4690    5.2870    0.6370 hc        1 MOL      0.093608
     96 H40         1.4760    4.7770   -0.6050 hc        1 MOL      0.093608
     97 H41         1.4700    7.3350    1.9750 ha        1 MOL      0.139761
     98 H42         2.1320    6.2980   -2.1250 ha        1 MOL      0.139761
     99 H43         2.1460    9.7490    1.5320 ha        1 MOL      0.158187
    100 H44         2.5660    8.7880   -2.6470 ha        1 MOL      0.158187
    101 H45         2.5460   11.3350   -0.2930 ho        1 MOL      0.377503
    102 N10         0.9790    2.8970    2.2660 n         1 MOL     -0.727687
    103 C34         0.3480    1.5870    2.6640 c3        1 MOL      0.290748
    104 C35        -0.0580    0.7000    1.5270 c         1 MOL      0.306278
    105 O15         0.8200    0.1070    0.8910 o         1 MOL     -0.414007
    106 C36         1.1950    0.7050    3.6510 c3        1 MOL      0.232071
    107 C37         0.5000   -0.5020    4.2820 c3        1 MOL     -0.049548
    108 C38         1.7830    1.6180    4.7660 c3        1 MOL     -0.175004
    109 C39        -0.8650   -0.2550    4.8890 c3        1 MOL     -0.272386
    110 H46         0.5190    3.7320    2.5910 hn        1 MOL      0.336706
    111 H47        -0.6180    1.8290    3.1040 h1        1 MOL      0.000841
    112 H48         2.0520    0.3680    3.0570 hc        1 MOL     -0.010187
    113 H49         1.1850   -0.9270    5.0110 hc        1 MOL      0.035696
    114 H50         0.3070   -1.2460    3.5140 hc        1 MOL      0.035696
    115 H51         0.9560    1.8990    5.4130 hc        1 MOL      0.038480
    116 H52         2.5580    1.0470    5.2820 hc        1 MOL      0.038480
    117 H53         2.2660    2.5240    4.3990 hc        1 MOL      0.038480
    118 H54        -0.8590    0.6410    5.5130 hc        1 MOL      0.061699
    119 H55        -1.5070   -0.1790    4.0140 hc        1 MOL      0.061699
    120 H56        -1.0670   -1.1470    5.4770 hc        1 MOL      0.061699
    121 N11        -1.3470    0.4510    1.2610 n         1 MOL     -0.335175
    122 C40        -1.8250   -0.5330    0.2450 c3        1 MOL     -0.221120
    123 C41        -3.2600   -0.2760   -0.2060 c         1 MOL      0.717295
    124 O16        -3.6720   -0.6200   -1.2940 o         1 MOL     -0.544481
    125 C42        -1.5830   -1.9730    0.7280 c3        1 MOL      0.438075
    126 O17        -2.4100   -2.1390    1.7740 oh        1 MOL     -0.633845
    127 H57        -2.0780    0.8580    1.8220 hn        1 MOL      0.251007
    128 H58        -1.2110   -0.3750   -0.6360 h1        1 MOL      0.111539
    129 H59        -0.5410   -2.1670    0.9440 h1        1 MOL     -0.115887
    130 H60        -1.9310   -2.6240   -0.0730 h1        1 MOL     -0.115887
    131 H61        -1.9560   -2.8350    2.2590 ho        1 MOL      0.453990
    132 N12        -3.9890    0.5500    0.6060 n         1 MOL     -0.561679
    133 C43        -5.3040    0.9640    0.3020 c3        1 MOL      0.114445
    134 C44        -5.4660    1.8280   -0.9790 c         1 MOL      0.659724
    135 O18        -4.5950    2.6980   -1.1800 o         1 MOL     -0.587970
    136 C45        -5.8450    1.6230    1.4840 c3        1 MOL     -0.320780
    137 H62        -3.5980    0.9860    1.4210 hn        1 MOL      0.321532
    138 H63        -5.8300    0.0160    0.1530 h1        1 MOL      0.083446
    139 H64        -5.7490    0.9540    2.3330 hc        1 MOL      0.098564
    140 H65        -5.2620    2.5260    1.6710 hc        1 MOL      0.098564
    141 H66        -6.9250    1.7880    1.4170 hc        1 MOL      0.098564
    142 N13        -6.4700    1.6640   -1.8500 n         1 MOL     -0.704656
    143 C46        -7.6960    0.7500   -1.7750 c3        1 MOL      0.483922
    144 C47        -8.9270    1.4040   -2.4590 c         1 MOL      0.380849
    145 O19        -8.8240    2.0530   -3.4170 o         1 MOL     -0.516480
    146 C48        -7.4150   -0.5290   -2.4650 c3        1 MOL     -0.131931
    147 H67        -6.3740    2.2820   -2.6390 hn        1 MOL      0.347836
    148 H68        -7.8420    0.4810   -0.7340 h1        1 MOL     -0.082649
    149 H69        -7.7470   -0.5070   -3.5050 hc        1 MOL      0.027000
    150 H70        -6.3510   -0.7200   -2.3990 hc        1 MOL      0.027000
    151 H71        -7.9660   -1.3190   -1.9440 hc        1 MOL      0.027000
    152 N14       -10.1250    1.4000   -1.8590 n         1 MOL     -0.355460
    153 C49       -10.3190    0.8470   -0.5260 c3        1 MOL     -0.275675
    154 C50        -9.8080    1.9230    0.5050 c         1 MOL      0.594764
    155 O20        -9.3970    1.5580    1.5950 o         1 MOL     -0.546308
    156 C51       -11.8290    0.4570   -0.2760 c3        1 MOL     -0.086964
    157 C52       -12.3880   -0.5420   -1.3030 c3        1 MOL     -0.229272
    158 C53       -13.4260   -1.5060   -0.6150 c         1 MOL      0.715879
    159 O21       -14.4450   -1.0130   -0.0880 o         1 MOL     -0.672255
    160 O22       -13.2850   -2.7260   -0.8080 o         1 MOL     -0.672255
    161 H72       -10.7890    1.9480   -2.3950 hn        1 MOL      0.304716
    162 H73        -9.7900   -0.1010   -0.4480 h1        1 MOL      0.190643
    163 H74       -12.3810    1.3910   -0.2550 hc        1 MOL      0.072406
    164 H75       -11.8860    0.1050    0.7580 hc        1 MOL      0.072406
    165 H76       -11.5870   -1.0620   -1.8350 hc        1 MOL      0.051906
    166 H77       -12.8760    0.0770   -2.0580 hc        1 MOL      0.051906
    167 N15        -9.6520    3.2050    0.1700 n         1 MOL     -0.353356
    168 C54        -9.1360    4.2280    1.0710 c3        1 MOL     -0.126584
    169 H78        -9.9690    4.7610    1.5310 h1        1 MOL      0.083678
    170 H79        -8.5330    3.7580    1.8480 h1        1 MOL      0.083678
    171 H80        -8.5220    4.9330    0.5100 h1        1 MOL      0.083678
    172 H81       -10.1100    3.5020   -0.6800 hn        1 MOL      0.273366
    173 Ca1         2.8010    0.2250   -0.9460 Ca        1 MOL      1.720808
    174 O23         1.1960   -1.1950   -2.4740 oh        1 MOL     -0.890240
    175 H82         1.6980   -1.6300   -3.1600 ho        1 MOL      0.434922
    176 H83         0.2830   -1.2960   -2.7390 ho        1 MOL      0.434922
    177 O24         3.8090    1.8820   -2.9860 oh        1 MOL     -0.890240
    178 H84         3.7630    2.2280   -3.8740 ho        1 MOL      0.434922
    179 H85         4.7210    1.5980   -2.8930 ho        1 MOL      0.434922
    180 O25         0.7930    1.7990   -1.6740 oh        1 MOL     -0.890240
    181 H86        -0.0750    1.5020   -1.9680 ho        1 MOL      0.434922
    182 H87         0.8790    2.6820   -2.0310 ho        1 MOL      0.434922
@<TRIPOS>BOND
     1    1    2 1   
     2    1    4 1   
     3    1    5 1   
     4    1    6 1   
     5    2    3 2   
     6    2    7 1   
     7    7    8 1   
     8    7   15 1   
     9    8    9 1   
    10    8   11 1   
    11    8   16 1   
    12    9   10 2   
    13    9   19 1   
    14   11   12 1   
    15   11   17 1   
    16   11   18 1   
    17   12   13 1   
    18   12   14 1   
    19   19   20 1   
    20   19   28 1   
    21   20   21 1   
    22   20   23 1   
    23   20   29 1   
    24   21   22 2   
    25   21   41 1   
    26   23   24 1   
    27   23   30 1   
    28   23   31 1   
    29   24   25 1   
    30   24   32 1   
    31   24   33 1   
    32   25   26 1   
    33   25   34 1   
    34   25   35 1   
    35   26   27 1   
    36   26   36 1   
    37   26   37 1   
    38   27   38 1   
    39   27   39 1   
    40   27   40 1   
    41   41   42 1   
    42   41   49 1   
    43   42   43 1   
    44   42   45 1   
    45   42   50 1   
    46   43   44 2   
    47   43   53 1   
    48   45   46 1   
    49   45   51 1   
    50   45   52 1   
    51   46   47 1   
    52   46   48 1   
    53   53   54 1   
    54   53   57 1   
    55   54   55 1   
    56   54   58 1   
    57   54   59 1   
    58   55   56 2   
    59   55   60 1   
    60   60   61 1   
    61   60   68 1   
    62   61   62 1   
    63   61   64 1   
    64   61   69 1   
    65   62   63 2   
    66   62   74 1   
    67   64   65 1   
    68   64   70 1   
    69   64   71 1   
    70   65   66 1   
    71   65   67 2   
    72   66   72 1   
    73   66   73 1   
    74   74   75 1   
    75   74   78 1   
    76   75   76 1   
    77   75   79 1   
    78   75   80 1   
    79   76   77 2   
    80   76   81 1   
    81   81   82 1   
    82   81   93 1   
    83   82   83 1   
    84   82   85 1   
    85   82   94 1   
    86   83   84 2   
    87   83  102 1   
    88   85   86 1   
    89   85   95 1   
    90   85   96 1   
    91   86   87 ar  
    92   86   88 ar  
    93   87   89 ar  
    94   87   97 1   
    95   88   90 ar  
    96   88   98 1   
    97   89   91 ar  
    98   89   99 1   
    99   90   91 ar  
   100   90  100 1   
   101   91   92 1   
   102   92  101 1   
   103  102  103 1   
   104  102  110 1   
   105  103  104 1   
   106  103  106 1   
   107  103  111 1   
   108  104  105 2   
   109  104  121 1   
   110  106  107 1   
   111  106  108 1   
   112  106  112 1   
   113  107  109 1   
   114  107  113 1   
   115  107  114 1   
   116  108  115 1   
   117  108  116 1   
   118  108  117 1   
   119  109  118 1   
   120  109  119 1   
   121  109  120 1   
   122  121  122 1   
   123  121  127 1   
   124  122  123 1   
   125  122  125 1   
   126  122  128 1   
   127  123  124 2   
   128  123  132 1   
   129  125  126 1   
   130  125  129 1   
   131  125  130 1   
   132  126  131 1   
   133  132  133 1   
   134  132  137 1   
   135  133  134 1   
   136  133  136 1   
   137  133  138 1   
   138  134  135 2   
   139  134  142 1   
   140  136  139 1   
   141  136  140 1   
   142  136  141 1   
   143  142  143 1   
   144  142  147 1   
   145  143  144 1   
   146  143  146 1   
   147  143  148 1   
   148  144  145 2   
   149  144  152 1   
   150  146  149 1   
   151  146  150 1   
   152  146  151 1   
   153  152  153 1   
   154  152  161 1   
   155  153  154 1   
   156  153  156 1   
   157  153  162 1   
   158  154  155 2   
   159  154  167 1   
   160  156  157 1   
   161  156  163 1   
   162  156  164 1   
   163  157  158 1   
   164  157  165 1   
   165  157  166 1   
   166  158  159 1   
   167  158  160 1   
   168  167  168 1   
   169  167  172 1   
   170  168  169 1   
   171  168  170 1   
   172  168  171 1   
   173  174  175 1   
   174  174  176 1   
   175  177  178 1   
   176  177  179 1   
   177  180  181 1   
   178  180  182 1   
@<TRIPOS>SUBSTRUCTURE
     1 MOL         1 TEMP              0 ****  ****    0 ROOT
