@<TRIPOS>MOLECULE
MOL
  185   180     1     0     0
SMALL
resp


@<TRIPOS>ATOM
      1 C1         -4.5510    0.8460   -4.7910 c3        1 MOL     -0.369749
      2 C2         -4.7260    0.6170   -3.2970 c         1 MOL      0.709489
      3 O1         -3.8860   -0.0890   -2.6550 o         1 MOL     -0.620451
      4 H1         -5.1000    1.7400   -5.0880 hc        1 MOL      0.087231
      5 H2         -3.4940    0.9780   -5.0170 hc        1 MOL      0.087231
      6 H3         -4.9360   -0.0140   -5.3390 hc        1 MOL      0.087231
      7 N1         -5.7790    1.1670   -2.7580 n         1 MOL     -0.537704
      8 C3         -6.1710    1.0020   -1.3870 c3        1 MOL      0.009514
      9 C4         -6.3740   -0.4150   -0.8560 c         1 MOL      0.515879
     10 O2         -6.2730   -0.5440    0.3780 o         1 MOL     -0.485424
     11 C5         -5.3100    1.9710   -0.5260 c3        1 MOL     -0.035698
     12 C6         -5.8970    2.3430    0.8640 c         1 MOL      0.755270
     13 O3         -5.1430    2.8430    1.7450 o         1 MOL     -0.680932
     14 O4         -7.1410    2.4780    0.8600 o         1 MOL     -0.680932
     15 H4         -6.4820    1.5860   -3.3570 hn        1 MOL      0.312476
     16 H5         -7.1430    1.4890   -1.3030 h1        1 MOL      0.041896
     17 H6         -5.0860    2.8970   -1.0630 hc        1 MOL      0.022030
     18 H7         -4.3040    1.6880   -0.2130 hc        1 MOL      0.022030
     19 N2         -6.4300   -1.4410   -1.7140 n         1 MOL     -0.474098
     20 C7         -6.5640   -2.8460   -1.3090 c3        1 MOL     -0.112201
     21 C8         -5.3790   -3.4510   -0.5780 c         1 MOL      0.542959
     22 O5         -5.4710   -4.5470   -0.1080 o         1 MOL     -0.535936
     23 C9         -6.9010   -3.6670   -2.5570 c3        1 MOL     -0.203402
     24 C10        -8.3450   -3.4670   -2.9920 c3        1 MOL      0.252544
     25 C11        -8.7620   -4.3270   -4.2560 c3        1 MOL     -0.229586
     26 C12       -10.0900   -3.8520   -4.8170 c3        1 MOL      0.186713
     27 N3        -10.7040   -4.8510   -5.6750 n4        1 MOL     -0.256219
     28 H8         -6.6010   -1.2900   -2.6980 hn        1 MOL      0.284127
     29 H9         -7.4080   -2.8930   -0.6230 h1        1 MOL      0.139249
     30 H10        -6.7230   -4.7050   -2.2820 hc        1 MOL      0.083281
     31 H11        -6.2370   -3.4280   -3.3820 hc        1 MOL      0.083281
     32 H12        -8.4770   -2.4410   -3.3310 hc        1 MOL     -0.027150
     33 H13        -9.1500   -3.6680   -2.2790 hc        1 MOL     -0.027150
     34 H14        -8.8870   -5.3580   -3.9210 hc        1 MOL      0.064850
     35 H15        -8.0090   -4.1830   -5.0300 hc        1 MOL      0.064850
     36 H16       -10.0930   -2.8640   -5.2790 hx        1 MOL      0.041237
     37 H17       -10.7960   -3.7590   -3.9870 hx        1 MOL      0.041237
     38 H18       -10.2840   -4.9400   -6.5910 hn        1 MOL      0.272438
     39 H19       -10.5730   -5.7970   -5.3330 hn        1 MOL      0.272438
     40 H20       -11.6700   -4.6230   -5.8730 hn        1 MOL      0.272438
     41 N4         -4.2880   -2.6590   -0.4860 n         1 MOL     -0.167190
     42 C13        -2.9720   -2.9540    0.1800 c3        1 MOL     -0.494208
     43 C14        -3.0770   -3.2410    1.6720 c         1 MOL      0.718344
     44 O6         -3.7550   -2.5930    2.4270 o         1 MOL     -0.473345
     45 C15        -2.0620   -1.8630   -0.1640 c3        1 MOL      0.092731
     46 C16        -0.6940   -1.9890    0.5560 c         1 MOL      0.576305
     47 O7         -0.4990   -1.7240    1.7860 o         1 MOL     -0.701635
     48 O8          0.2610   -2.0550   -0.2620 o         1 MOL     -0.701635
     49 H21        -4.4110   -1.8420   -1.0680 hn        1 MOL      0.249283
     50 H22        -2.4810   -3.8230   -0.2460 h1        1 MOL      0.128373
     51 H23        -2.5250   -0.9110    0.1170 hc        1 MOL      0.068600
     52 H24        -1.9570   -1.7720   -1.2450 hc        1 MOL      0.068600
     53 N5         -2.2230   -4.1390    2.1940 n         1 MOL     -0.431754
     54 C17        -2.3180   -4.5890    3.5690 c3        1 MOL     -0.147023
     55 C18        -2.3590   -3.5560    4.6000 c         1 MOL      0.396619
     56 O9         -3.1260   -3.7460    5.5420 o         1 MOL     -0.540056
     57 H25        -1.7270   -4.7530    1.5610 hn        1 MOL      0.266396
     58 H26        -1.5960   -5.3840    3.7600 h1        1 MOL      0.106667
     59 H27        -3.3000   -5.0520    3.5940 h1        1 MOL      0.106667
     60 N6         -1.5450   -2.5660    4.4810 n         1 MOL     -0.159214
     61 C19        -1.5310   -1.3620    5.3080 c3        1 MOL     -0.035991
     62 C20        -1.8720    0.0020    4.7240 c         1 MOL      0.556871
     63 O10        -1.8420    0.9970    5.4440 o         1 MOL     -0.581045
     64 C21        -0.1910   -1.3420    5.9960 c3        1 MOL     -0.089341
     65 C22         0.8830   -0.6430    5.2050 c         1 MOL      0.533251
     66 N7          1.3510    0.4920    5.6590 n         1 MOL     -0.733620
     67 O11         1.2210   -1.0740    4.1340 o         1 MOL     -0.556846
     68 H28        -0.8320   -2.6330    3.7690 hn        1 MOL      0.196259
     69 H29        -2.2730   -1.5510    6.0790 h1        1 MOL      0.101866
     70 H30         0.0920   -2.3670    6.2460 hc        1 MOL      0.037812
     71 H31        -0.2760   -0.8300    6.9540 hc        1 MOL      0.037812
     72 H32         0.9360    0.8530    6.5040 hn        1 MOL      0.367419
     73 H33         2.0500    0.9770    5.1050 hn        1 MOL      0.367419
     74 N8         -2.2320    0.0390    3.4890 n         1 MOL     -0.362886
     75 C23        -2.7900    1.2480    2.8030 c3        1 MOL     -0.039202
     76 C24        -1.7710    1.9460    1.8980 c         1 MOL      0.491488
     77 O12        -0.5800    1.7910    2.1210 o         1 MOL     -0.495550
     78 H34        -1.9680   -0.7320    2.8900 hn        1 MOL      0.281303
     79 H35        -3.0730    1.9830    3.5620 h1        1 MOL      0.093120
     80 H36        -3.7230    1.0350    2.2830 h1        1 MOL      0.093120
     81 N9         -2.1890    2.8320    0.9240 n         1 MOL     -0.547098
     82 C25        -1.3190    3.5990    0.0440 c3        1 MOL      0.188492
     83 C26        -0.4180    2.6550   -0.7170 c         1 MOL      0.571446
     84 O13        -0.8200    1.5390   -1.1180 o         1 MOL     -0.469031
     85 C27        -2.1500    4.4610   -0.9680 c3        1 MOL     -0.210903
     86 C28        -2.7770    5.6350   -0.2040 ca        1 MOL      0.216777
     87 C29        -4.0850    5.5430    0.1350 ca        1 MOL     -0.294169
     88 C30        -2.1120    6.8500    0.0220 ca        1 MOL     -0.294169
     89 C31        -4.8130    6.5930    0.7090 ca        1 MOL     -0.121735
     90 C32        -2.8040    7.8810    0.6870 ca        1 MOL     -0.121735
     91 C33        -4.1610    7.7820    1.0020 ca        1 MOL      0.276008
     92 O14        -4.7650    8.8510    1.5720 oh        1 MOL     -0.575997
     93 H37        -3.1930    2.9590    0.9310 hn        1 MOL      0.398859
     94 H38        -0.6810    4.2330    0.6480 h1        1 MOL      0.007793
     95 H39        -2.9260    3.9000   -1.4990 hc        1 MOL      0.046912
     96 H40        -1.3990    4.9250   -1.6150 hc        1 MOL      0.046912
     97 H41        -4.6100    4.6630   -0.2100 ha        1 MOL      0.133592
     98 H42        -1.0580    6.8980   -0.2050 ha        1 MOL      0.133592
     99 H43        -5.8810    6.4290    0.8340 ha        1 MOL      0.115904
    100 H44        -2.2940    8.8370    0.7170 ha        1 MOL      0.115904
    101 H45        -5.6820    8.7900    1.8320 ho        1 MOL      0.432085
    102 N10         0.6560    3.2530   -1.1640 n         1 MOL     -0.597734
    103 C34         1.7530    2.6450   -1.9660 c3        1 MOL      0.047780
    104 C35         3.0770    2.5930   -1.0910 c         1 MOL      0.672926
    105 O15         3.7420    1.5590   -1.0040 o         1 MOL     -0.472577
    106 C36         1.8340    3.1900   -3.3980 c3        1 MOL     -0.056178
    107 C37         0.4650    2.9460   -4.0760 c3        1 MOL      0.092750
    108 C38         3.0870    2.7340   -4.1990 c3        1 MOL     -0.362561
    109 C39         0.3940    3.4050   -5.5810 c3        1 MOL     -0.335013
    110 H46         0.6760    4.2290   -0.9130 hn        1 MOL      0.286197
    111 H47         1.5440    1.5820   -2.0340 h1        1 MOL      0.097798
    112 H48         1.8970    4.2530   -3.1810 hc        1 MOL      0.018300
    113 H49        -0.3240    3.3840   -3.4750 hc        1 MOL      0.060500
    114 H50         0.2320    1.8830   -4.0090 hc        1 MOL      0.060500
    115 H51         4.0180    3.0280   -3.7120 hc        1 MOL      0.107412
    116 H52         3.0880    1.6510   -4.3100 hc        1 MOL      0.107412
    117 H53         3.2220    3.1350   -5.2030 hc        1 MOL      0.107412
    118 H54         1.1260    2.8820   -6.2120 hc        1 MOL      0.086177
    119 H55        -0.6220    3.1600   -5.9000 hc        1 MOL      0.086177
    120 H56         0.5810    4.4700   -5.7140 hc        1 MOL      0.086177
    121 N11         3.4560    3.7060   -0.4440 n         1 MOL     -0.605703
    122 C40         4.5820    3.8880    0.5320 c3        1 MOL      0.144480
    123 C41         5.9090    3.3110    0.0570 c         1 MOL      0.364410
    124 O16         6.7740    2.8240    0.8280 o         1 MOL     -0.506181
    125 C42         4.6830    5.3590    0.7680 c3        1 MOL      0.175357
    126 O17         3.6110    5.7340    1.5280 oh        1 MOL     -0.593387
    127 H57         2.8400    4.4930   -0.5600 hn        1 MOL      0.298599
    128 H58         4.3020    3.3790    1.4550 h1        1 MOL      0.094682
    129 H59         4.8010    5.9750   -0.1220 h1        1 MOL      0.021531
    130 H60         5.6390    5.4250    1.2960 h1        1 MOL      0.021531
    131 H61         3.5160    6.6820    1.4580 ho        1 MOL      0.408391
    132 N12         6.0600    3.3330   -1.2280 n         1 MOL     -0.380001
    133 C43         7.1600    2.7010   -1.9880 c3        1 MOL      0.427877
    134 C44         7.5980    1.2990   -1.6050 c         1 MOL      0.354902
    135 O18         8.7590    1.0250   -1.6680 o         1 MOL     -0.515927
    136 C45         8.1980    3.8390   -2.1980 c3        1 MOL     -0.516619
    137 H62         5.3490    3.8580   -1.7310 hn        1 MOL      0.220394
    138 H63         6.7320    2.5290   -2.9690 h1        1 MOL     -0.004602
    139 H64         7.7350    4.6730   -2.7300 hc        1 MOL      0.135107
    140 H65         8.6520    4.1480   -1.2630 hc        1 MOL      0.135107
    141 H66         9.0410    3.5370   -2.8300 hc        1 MOL      0.135107
    142 N13         6.7220    0.3180   -1.3240 n         1 MOL     -0.265825
    143 C46         7.1250   -0.9490   -0.6330 c3        1 MOL      0.539018
    144 C47         6.4330   -2.1740   -1.1750 c         1 MOL      0.048397
    145 O19         5.3540   -2.0060   -1.8550 o         1 MOL     -0.381597
    146 C48         6.9470   -0.7620    0.8830 c3        1 MOL     -0.265735
    147 H67         5.7270    0.4690   -1.4450 hn        1 MOL      0.053226
    148 H68         8.2120   -1.0710   -0.7120 h1        1 MOL     -0.033335
    149 H69         7.2940   -1.6060    1.4770 hc        1 MOL      0.063695
    150 H70         7.5330    0.0740    1.2770 hc        1 MOL      0.063695
    151 H71         5.9050   -0.4920    1.0560 hc        1 MOL      0.063695
    152 N14         6.9780   -3.3840   -0.9700 n         1 MOL     -0.374855
    153 C49         6.7110   -4.6430   -1.7020 c3        1 MOL     -0.104250
    154 C50         6.6990   -4.4080   -3.2520 c         1 MOL      0.558911
    155 O20         6.3420   -5.2850   -4.0300 o         1 MOL     -0.536631
    156 C51         5.3050   -5.2160   -1.4320 c3        1 MOL      0.129348
    157 C52         4.9250   -5.4090   -0.0160 c3        1 MOL     -0.193237
    158 C53         4.7050   -4.2010    0.8530 c         1 MOL      0.820847
    159 O21         5.5700   -3.8300    1.7100 o         1 MOL     -0.759729
    160 O22         3.4880   -3.7700    0.8850 o         1 MOL     -0.759729
    161 H72         7.7190   -3.4080   -0.2810 hn        1 MOL      0.321574
    162 H73         7.4980   -5.3910   -1.5510 h1        1 MOL      0.105612
    163 H74         5.1660   -6.2320   -1.8000 hc        1 MOL      0.005736
    164 H75         4.6370   -4.4930   -1.9010 hc        1 MOL      0.005736
    165 H76         5.6420   -6.0930    0.4280 hc        1 MOL      0.044310
    166 H77         3.9640   -5.9160    0.0910 hc        1 MOL      0.044310
    167 N15         7.3780   -3.3540   -3.6850 n         1 MOL     -0.373086
    168 C54         7.2600   -2.8600   -5.0580 c3        1 MOL     -0.021646
    169 H78         6.4980   -2.0820   -5.1000 h1        1 MOL      0.059225
    170 H79         8.2170   -2.4490   -5.3810 h1        1 MOL      0.059225
    171 H80         6.9770   -3.6820   -5.7170 h1        1 MOL      0.059225
    172 H81         7.8350   -2.7450   -3.0280 hn        1 MOL      0.246918
    173 Ca1         2.0610   -1.9540    1.8810 Ca        1 MOL      1.765099
    174 O23         3.2520   -1.0510   -0.3290 oh        1 MOL     -0.875488
    175 H82         3.3610   -0.1350   -0.5580 ho        1 MOL      0.419348
    176 H83         3.9540   -1.4960   -0.8080 ho        1 MOL      0.419348
    177 O24         2.3760    0.7500    2.1730 oh        1 MOL     -0.875488
    178 H84         3.0370    1.2210    2.6860 ho        1 MOL      0.419348
    179 H85         1.6360    1.3470    2.1340 ho        1 MOL      0.419348
    180 O25         4.3560   -2.0940    3.1990 oh        1 MOL     -0.875488
    181 H86         4.8150   -2.6670    2.5830 ho        1 MOL      0.419348
    182 H87         5.0480   -1.6540    3.6870 ho        1 MOL      0.419348
    183 O26         1.3580   -4.0410    3.4850 oh        1 MOL     -0.875488
    184 H88         1.0230   -4.8620    3.1240 ho        1 MOL      0.419348
    185 H89         1.1980   -4.1150    4.4250 ho        1 MOL      0.419348
@<TRIPOS>BOND
     1    1    2 1   
     2    1    4 1   
     3    1    5 1   
     4    1    6 1   
     5    2    3 2   
     6    2    7 1   
     7    7    8 1   
     8    7   15 1   
     9    8    9 1   
    10    8   11 1   
    11    8   16 1   
    12    9   10 2   
    13    9   19 1   
    14   11   12 1   
    15   11   17 1   
    16   11   18 1   
    17   12   13 1   
    18   12   14 1   
    19   19   20 1   
    20   19   28 1   
    21   20   21 1   
    22   20   23 1   
    23   20   29 1   
    24   21   22 2   
    25   21   41 1   
    26   23   24 1   
    27   23   30 1   
    28   23   31 1   
    29   24   25 1   
    30   24   32 1   
    31   24   33 1   
    32   25   26 1   
    33   25   34 1   
    34   25   35 1   
    35   26   27 1   
    36   26   36 1   
    37   26   37 1   
    38   27   38 1   
    39   27   39 1   
    40   27   40 1   
    41   41   42 1   
    42   41   49 1   
    43   42   43 1   
    44   42   45 1   
    45   42   50 1   
    46   43   44 2   
    47   43   53 1   
    48   45   46 1   
    49   45   51 1   
    50   45   52 1   
    51   46   47 1   
    52   46   48 1   
    53   53   54 1   
    54   53   57 1   
    55   54   55 1   
    56   54   58 1   
    57   54   59 1   
    58   55   56 2   
    59   55   60 1   
    60   60   61 1   
    61   60   68 1   
    62   61   62 1   
    63   61   64 1   
    64   61   69 1   
    65   62   63 2   
    66   62   74 1   
    67   64   65 1   
    68   64   70 1   
    69   64   71 1   
    70   65   66 1   
    71   65   67 2   
    72   66   72 1   
    73   66   73 1   
    74   74   75 1   
    75   74   78 1   
    76   75   76 1   
    77   75   79 1   
    78   75   80 1   
    79   76   77 2   
    80   76   81 1   
    81   81   82 1   
    82   81   93 1   
    83   82   83 1   
    84   82   85 1   
    85   82   94 1   
    86   83   84 2   
    87   83  102 1   
    88   85   86 1   
    89   85   95 1   
    90   85   96 1   
    91   86   87 ar  
    92   86   88 ar  
    93   87   89 ar  
    94   87   97 1   
    95   88   90 ar  
    96   88   98 1   
    97   89   91 ar  
    98   89   99 1   
    99   90   91 ar  
   100   90  100 1   
   101   91   92 1   
   102   92  101 1   
   103  102  103 1   
   104  102  110 1   
   105  103  104 1   
   106  103  106 1   
   107  103  111 1   
   108  104  105 2   
   109  104  121 1   
   110  106  107 1   
   111  106  108 1   
   112  106  112 1   
   113  107  109 1   
   114  107  113 1   
   115  107  114 1   
   116  108  115 1   
   117  108  116 1   
   118  108  117 1   
   119  109  118 1   
   120  109  119 1   
   121  109  120 1   
   122  121  122 1   
   123  121  127 1   
   124  122  123 1   
   125  122  125 1   
   126  122  128 1   
   127  123  124 2   
   128  123  132 1   
   129  125  126 1   
   130  125  129 1   
   131  125  130 1   
   132  126  131 1   
   133  132  133 1   
   134  132  137 1   
   135  133  134 1   
   136  133  136 1   
   137  133  138 1   
   138  134  135 2   
   139  134  142 1   
   140  136  139 1   
   141  136  140 1   
   142  136  141 1   
   143  142  143 1   
   144  142  147 1   
   145  143  144 1   
   146  143  146 1   
   147  143  148 1   
   148  144  145 2   
   149  144  152 1   
   150  146  149 1   
   151  146  150 1   
   152  146  151 1   
   153  152  153 1   
   154  152  161 1   
   155  153  154 1   
   156  153  156 1   
   157  153  162 1   
   158  154  155 2   
   159  154  167 1   
   160  156  157 1   
   161  156  163 1   
   162  156  164 1   
   163  157  158 1   
   164  157  165 1   
   165  157  166 1   
   166  158  159 1   
   167  158  160 1   
   168  167  168 1   
   169  167  172 1   
   170  168  169 1   
   171  168  170 1   
   172  168  171 1   
   173  174  175 1   
   174  174  176 1   
   175  177  178 1   
   176  177  179 1   
   177  180  181 1   
   178  180  182 1   
   179  183  184 1   
   180  183  185 1   
@<TRIPOS>SUBSTRUCTURE
     1 MOL         1 TEMP              0 ****  ****    0 ROOT
