@<TRIPOS>MOLECULE
MOL
  179   176     1     0     0
SMALL
resp


@<TRIPOS>ATOM
      1 C1          1.5390   -4.8200    6.0070 c3        1 MOL     -0.330099
      2 C2          1.2360   -4.3420    4.5520 c         1 MOL      0.671433
      3 O1          0.1220   -4.5400    4.0070 o         1 MOL     -0.614218
      4 H1          2.2070   -5.6810    5.9750 hc        1 MOL      0.095829
      5 H2          2.0130   -4.0130    6.5650 hc        1 MOL      0.095829
      6 H3          0.6070   -5.1030    6.4980 hc        1 MOL      0.095829
      7 N1          2.2780   -3.8160    3.9460 n         1 MOL     -0.524637
      8 C3          2.3320   -3.3360    2.5770 c3        1 MOL      0.000593
      9 C4          2.5670   -4.4650    1.5470 c         1 MOL      0.603509
     10 O2          3.4100   -5.3330    1.7240 o         1 MOL     -0.552029
     11 C5          3.3640   -2.2140    2.5460 c3        1 MOL     -0.439172
     12 C6          3.6030   -1.5710    1.1180 c         1 MOL      0.839889
     13 O3          4.1390   -0.4750    1.0850 o         1 MOL     -0.712777
     14 O4          3.1790   -2.0110    0.0490 o         1 MOL     -0.712777
     15 H4          3.1840   -3.7620    4.3930 hn        1 MOL      0.317948
     16 H5          1.3450   -2.9010    2.4190 h1        1 MOL      0.187906
     17 H6          4.3230   -2.6210    2.8670 hc        1 MOL      0.123966
     18 H7          3.1690   -1.4070    3.2570 hc        1 MOL      0.123966
     19 N2          1.6930   -4.4920    0.5650 n         1 MOL     -0.264179
     20 C7          1.7660   -5.4380   -0.5290 c3        1 MOL     -0.026169
     21 C8          2.9390   -5.2330   -1.5830 c         1 MOL      0.442825
     22 O5          3.3090   -6.2070   -2.2700 o         1 MOL     -0.550734
     23 C9          0.3600   -5.5150   -1.1200 c3        1 MOL     -0.042488
     24 C10        -0.0870   -4.2740   -1.9640 c3        1 MOL      0.040995
     25 C11        -1.4400   -4.2910   -2.6130 c3        1 MOL     -0.120740
     26 C12        -2.5230   -4.5400   -1.5980 c3        1 MOL     -0.001369
     27 N3         -3.8180   -4.3400   -2.2260 n4        1 MOL     -0.463779
     28 H8          0.9100   -3.8780    0.7120 hn        1 MOL      0.051676
     29 H9          1.9440   -6.4520   -0.1720 h1        1 MOL      0.104228
     30 H10        -0.3610   -5.7700   -0.3540 hc        1 MOL      0.019546
     31 H11         0.3920   -6.3180   -1.8540 hc        1 MOL      0.019546
     32 H12         0.6890   -4.0130   -2.6840 hc        1 MOL      0.044286
     33 H13        -0.0940   -3.4520   -1.2420 hc        1 MOL      0.044286
     34 H14        -1.4270   -5.0780   -3.3620 hc        1 MOL      0.059187
     35 H15        -1.5160   -3.3440   -3.1580 hc        1 MOL      0.059187
     36 H16        -2.3200   -3.9090   -0.7310 hx        1 MOL      0.088891
     37 H17        -2.5050   -5.5510   -1.2020 hx        1 MOL      0.088891
     38 H18        -3.8340   -3.5110   -2.7950 hn        1 MOL      0.346967
     39 H19        -4.0510   -5.1800   -2.7290 hn        1 MOL      0.346967
     40 H20        -4.5400   -4.2070   -1.5320 hn        1 MOL      0.346967
     41 N4          3.5760   -4.0830   -1.6850 n         1 MOL     -0.162577
     42 C13         4.7640   -3.8360   -2.6160 c3        1 MOL      0.049934
     43 C14         6.0520   -3.4550   -1.8740 c         1 MOL      0.392411
     44 O6          7.1830   -3.6050   -2.4170 o         1 MOL     -0.538415
     45 C15         4.4700   -2.8450   -3.6890 c3        1 MOL     -0.122820
     46 C16         3.9390   -1.5090   -3.1070 c         1 MOL      0.682630
     47 O7          4.6710   -0.7950   -2.4240 o         1 MOL     -0.729232
     48 O8          2.6930   -1.2500   -3.1550 o         1 MOL     -0.729232
     49 H21         3.2550   -3.2780   -1.1600 hn        1 MOL      0.029439
     50 H22         5.0380   -4.7610   -3.1140 h1        1 MOL      0.115551
     51 H23         3.7700   -3.3190   -4.3870 hc        1 MOL      0.045758
     52 H24         5.2940   -2.6330   -4.3740 hc        1 MOL      0.045758
     53 N5          5.9690   -2.9770   -0.6270 n         1 MOL     -0.201038
     54 C17         7.1330   -2.4480    0.1710 c3        1 MOL     -0.116300
     55 C18         7.3120   -0.9720    0.2070 c         1 MOL      0.530156
     56 O9          8.0280   -0.4460    1.0780 o         1 MOL     -0.546324
     57 H25         5.0350   -2.8780   -0.2390 hn        1 MOL      0.172315
     58 H26         8.0970   -2.8330   -0.1520 h1        1 MOL      0.106382
     59 H27         6.9910   -2.7040    1.2210 h1        1 MOL      0.106382
     60 N6          6.6690   -0.1660   -0.7050 n         1 MOL     -0.358078
     61 C19         6.9930    1.2540   -0.7910 c3        1 MOL      0.271491
     62 C20         5.7650    2.2090   -0.8230 c         1 MOL      0.393514
     63 O10         4.5890    1.7740   -0.7740 o         1 MOL     -0.483318
     64 C21         7.9430    1.4280   -2.0090 c3        1 MOL     -0.450019
     65 C22         9.3750    0.9970   -1.6690 c         1 MOL      0.702091
     66 N7         10.3040    1.8920   -1.4820 n         1 MOL     -0.778133
     67 O11         9.7280   -0.1760   -1.5300 o         1 MOL     -0.529552
     68 H28         6.1390   -0.5760   -1.4530 hn        1 MOL      0.309520
     69 H29         7.6140    1.5110    0.0610 h1        1 MOL      0.014235
     70 H30         7.9960    2.4870   -2.2500 hc        1 MOL      0.107364
     71 H31         7.5940    0.8360   -2.8550 hc        1 MOL      0.107364
     72 H32        10.0850    2.8550   -1.2770 hn        1 MOL      0.355959
     73 H33        11.2500    1.5410   -1.4150 hn        1 MOL      0.355959
     74 N8          6.0450    3.5120   -0.9390 n         1 MOL     -0.273515
     75 C23         5.1010    4.5850   -0.9980 c3        1 MOL     -0.266196
     76 C24         4.0230    4.5520    0.1770 c         1 MOL      0.545684
     77 O12         4.3480    4.1950    1.3350 o         1 MOL     -0.467284
     78 H34         7.0250    3.7290   -0.9610 hn        1 MOL      0.279446
     79 H35         4.5740    4.4330   -1.9380 h1        1 MOL      0.123936
     80 H36         5.6570    5.5120   -1.1020 h1        1 MOL      0.123936
     81 N9          2.7230    4.8860   -0.1460 n         1 MOL     -0.473031
     82 C25         1.5740    4.8130    0.6470 c3        1 MOL      0.089939
     83 C26         1.3550    3.3210    1.0190 c         1 MOL      0.456025
     84 O13         1.9030    2.4230    0.3110 o         1 MOL     -0.501595
     85 C27         0.3390    5.4490    0.0160 c3        1 MOL     -0.093665
     86 C28         0.3050    6.9630   -0.2140 ca        1 MOL      0.033223
     87 C29         0.4310    7.9310    0.8000 ca        1 MOL     -0.097374
     88 C30         0.1920    7.3890   -1.5110 ca        1 MOL     -0.097374
     89 C31         0.3860    9.2970    0.5200 ca        1 MOL     -0.307268
     90 C32         0.3760    8.7430   -1.8360 ca        1 MOL     -0.307268
     91 C33         0.5180    9.7060   -0.8210 ca        1 MOL      0.377179
     92 O14         0.7830   10.9490   -1.1890 oh        1 MOL     -0.452813
     93 H37         2.4960    5.1820   -1.0810 hn        1 MOL      0.267493
     94 H38         1.8470    5.4330    1.5100 h1        1 MOL      0.070049
     95 H39        -0.5390    5.1720    0.6020 hc        1 MOL      0.038421
     96 H40         0.3640    4.8050   -0.8660 hc        1 MOL      0.038421
     97 H41         0.4550    7.6640    1.8450 ha        1 MOL      0.108321
     98 H42         0.1870    6.6170   -2.2740 ha        1 MOL      0.108321
     99 H43         0.2460   10.0240    1.3070 ha        1 MOL      0.169209
    100 H44         0.4640    9.0030   -2.8810 ha        1 MOL      0.169209
    101 H45         0.8060   11.4530   -0.3670 ho        1 MOL      0.362144
    102 N10         0.5930    3.1680    2.1000 n         1 MOL     -0.502363
    103 C34         0.2290    1.7930    2.6470 c3        1 MOL      0.030740
    104 C35        -0.0640    0.6460    1.7200 c         1 MOL      0.683483
    105 O15         0.7940    0.1480    0.9800 o         1 MOL     -0.586733
    106 C36         1.0950    1.4550    3.8240 c3        1 MOL      0.067157
    107 C37         0.6120    2.1340    5.1340 c3        1 MOL     -0.117571
    108 C38         2.6200    1.8190    3.4580 c3        1 MOL     -0.094410
    109 C39         1.5970    2.0290    6.3580 c3        1 MOL     -0.324337
    110 H46         0.4110    3.9610    2.7110 hn        1 MOL      0.324335
    111 H47        -0.7770    1.9340    3.0340 h1        1 MOL      0.004562
    112 H48         0.9590    0.3850    3.9390 hc        1 MOL      0.032867
    113 H49        -0.3810    1.7390    5.3530 hc        1 MOL      0.061833
    114 H50         0.4570    3.2010    4.9590 hc        1 MOL      0.061833
    115 H51         2.8550    1.1220    2.6500 hc        1 MOL      0.051410
    116 H52         2.8030    2.8840    3.3180 hc        1 MOL      0.051410
    117 H53         3.1950    1.4030    4.2870 hc        1 MOL      0.051410
    118 H54         2.0130    1.0150    6.3960 hc        1 MOL      0.103284
    119 H55         2.4290    2.7170    6.2090 hc        1 MOL      0.103284
    120 H56         1.0390    2.3530    7.2420 hc        1 MOL      0.103284
    121 N11        -1.2740    0.0510    1.8730 n         1 MOL     -0.745834
    122 C40        -1.7020   -1.1780    1.2100 c3        1 MOL      0.362330
    123 C41        -3.1770   -1.2180    0.7870 c         1 MOL      0.363358
    124 O16        -3.5260   -2.1150   -0.0170 o         1 MOL     -0.459655
    125 C42        -1.4870   -2.3950    2.0690 c3        1 MOL     -0.013171
    126 O17        -0.9850   -3.5140    1.2910 oh        1 MOL     -0.491172
    127 H57        -1.9740    0.5730    2.3820 hn        1 MOL      0.361358
    128 H58        -1.1600   -1.3170    0.2710 h1        1 MOL      0.092381
    129 H59        -2.3540   -2.7320    2.6460 h1        1 MOL      0.064063
    130 H60        -0.6210   -2.1820    2.6990 h1        1 MOL      0.064063
    131 H61        -0.9480   -4.3050    1.8340 ho        1 MOL      0.407693
    132 N12        -4.0570   -0.2970    1.1850 n         1 MOL     -0.505358
    133 C43        -5.4190   -0.2670    0.6510 c3        1 MOL      0.170320
    134 C44        -5.4280    0.3090   -0.7670 c         1 MOL      0.584285
    135 O18        -4.5120    0.9990   -1.1450 o         1 MOL     -0.581876
    136 C45        -6.4280    0.5050    1.4950 c3        1 MOL     -0.277723
    137 H62        -3.7900    0.5650    1.6420 hn        1 MOL      0.296727
    138 H63        -5.7160   -1.3180    0.5660 h1        1 MOL      0.066414
    139 H64        -5.9920    1.4670    1.7620 hc        1 MOL      0.094881
    140 H65        -7.3670    0.6540    0.9640 hc        1 MOL      0.094881
    141 H66        -6.6100   -0.0100    2.4370 hc        1 MOL      0.094881
    142 N13        -6.4560    0.0220   -1.6020 n         1 MOL     -0.497399
    143 C46        -7.5430   -0.9260   -1.3540 c3        1 MOL      0.153120
    144 C47        -8.8390   -0.3400   -1.9480 c         1 MOL      0.336012
    145 O19        -8.8130    0.0610   -3.1170 o         1 MOL     -0.517893
    146 C48        -7.1840   -2.3030   -1.9410 c3        1 MOL     -0.172333
    147 H67        -6.4640    0.4670   -2.5020 hn        1 MOL      0.312096
    148 H68        -7.7580   -1.0880   -0.3040 h1        1 MOL      0.021498
    149 H69        -7.8550   -3.1050   -1.6110 hc        1 MOL      0.050562
    150 H70        -7.1870   -2.4150   -3.0250 hc        1 MOL      0.050562
    151 H71        -6.1950   -2.6590   -1.6450 hc        1 MOL      0.050562
    152 N14       -10.0700   -0.3480   -1.4050 n         1 MOL     -0.200197
    153 C49       -10.3240   -0.8980   -0.0510 c3        1 MOL     -0.204860
    154 C50        -9.9300    0.0650    1.0720 c         1 MOL      0.435043
    155 O20        -9.4830   -0.3150    2.1710 o         1 MOL     -0.537823
    156 C51       -11.8410   -1.3000   -0.0270 c3        1 MOL      0.210853
    157 C52       -12.8660   -0.2030    0.0170 c3        1 MOL     -0.233297
    158 C53       -12.8940    0.4310   -1.3850 c         1 MOL      0.664104
    159 O21       -12.1480    1.3900   -1.6820 o         1 MOL     -0.672062
    160 O22       -13.6880   -0.0440   -2.3080 o         1 MOL     -0.672062
    161 H72       -10.8200    0.0580   -1.9400 hn        1 MOL      0.269641
    162 H73        -9.7760   -1.8420    0.0190 h1        1 MOL      0.075350
    163 H74       -12.0100   -1.9960    0.8000 hc        1 MOL     -0.020445
    164 H75       -11.9830   -1.9320   -0.9050 hc        1 MOL     -0.020445
    165 H76       -12.6200    0.5280    0.7850 hc        1 MOL      0.034850
    166 H77       -13.8260   -0.6810    0.2260 hc        1 MOL      0.034850
    167 N15       -10.1670    1.3750    0.7130 n         1 MOL     -0.085278
    168 C54        -9.6700    2.5190    1.4030 c3        1 MOL     -0.238363
    169 H78       -10.5050    3.1540    1.7010 h1        1 MOL      0.087735
    170 H79        -9.1220    2.2000    2.2900 h1        1 MOL      0.087735
    171 H80        -9.0040    3.0800    0.7470 h1        1 MOL      0.087735
    172 H81       -10.6310    1.5120   -0.1740 hn        1 MOL      0.177714
    173 Ca1         2.5930    0.2290   -1.0020 Ca        1 MOL      1.773894
    174 O23         1.8780    1.9460   -2.9430 oh        1 MOL     -0.929677
    175 H82         2.0990    2.8580   -3.1600 ho        1 MOL      0.447712
    176 H83         1.2120    1.7110   -3.5910 ho        1 MOL      0.447712
    177 O24         0.0120   -0.0790   -1.6830 oh        1 MOL     -0.929677
    178 H84        -0.4250    0.5980   -1.1780 ho        1 MOL      0.447712
    179 H85        -0.4230   -0.0690   -2.5380 ho        1 MOL      0.447712
@<TRIPOS>BOND
     1    1    2 1   
     2    1    4 1   
     3    1    5 1   
     4    1    6 1   
     5    2    3 2   
     6    2    7 1   
     7    7    8 1   
     8    7   15 1   
     9    8    9 1   
    10    8   11 1   
    11    8   16 1   
    12    9   10 2   
    13    9   19 1   
    14   11   12 1   
    15   11   17 1   
    16   11   18 1   
    17   12   13 1   
    18   12   14 1   
    19   19   20 1   
    20   19   28 1   
    21   20   21 1   
    22   20   23 1   
    23   20   29 1   
    24   21   22 2   
    25   21   41 1   
    26   23   24 1   
    27   23   30 1   
    28   23   31 1   
    29   24   25 1   
    30   24   32 1   
    31   24   33 1   
    32   25   26 1   
    33   25   34 1   
    34   25   35 1   
    35   26   27 1   
    36   26   36 1   
    37   26   37 1   
    38   27   38 1   
    39   27   39 1   
    40   27   40 1   
    41   41   42 1   
    42   41   49 1   
    43   42   43 1   
    44   42   45 1   
    45   42   50 1   
    46   43   44 2   
    47   43   53 1   
    48   45   46 1   
    49   45   51 1   
    50   45   52 1   
    51   46   47 1   
    52   46   48 1   
    53   53   54 1   
    54   53   57 1   
    55   54   55 1   
    56   54   58 1   
    57   54   59 1   
    58   55   56 2   
    59   55   60 1   
    60   60   61 1   
    61   60   68 1   
    62   61   62 1   
    63   61   64 1   
    64   61   69 1   
    65   62   63 2   
    66   62   74 1   
    67   64   65 1   
    68   64   70 1   
    69   64   71 1   
    70   65   66 1   
    71   65   67 2   
    72   66   72 1   
    73   66   73 1   
    74   74   75 1   
    75   74   78 1   
    76   75   76 1   
    77   75   79 1   
    78   75   80 1   
    79   76   77 2   
    80   76   81 1   
    81   81   82 1   
    82   81   93 1   
    83   82   83 1   
    84   82   85 1   
    85   82   94 1   
    86   83   84 2   
    87   83  102 1   
    88   85   86 1   
    89   85   95 1   
    90   85   96 1   
    91   86   87 ar  
    92   86   88 ar  
    93   87   89 ar  
    94   87   97 1   
    95   88   90 ar  
    96   88   98 1   
    97   89   91 ar  
    98   89   99 1   
    99   90   91 ar  
   100   90  100 1   
   101   91   92 1   
   102   92  101 1   
   103  102  103 1   
   104  102  110 1   
   105  103  104 1   
   106  103  106 1   
   107  103  111 1   
   108  104  105 2   
   109  104  121 1   
   110  106  107 1   
   111  106  108 1   
   112  106  112 1   
   113  107  109 1   
   114  107  113 1   
   115  107  114 1   
   116  108  115 1   
   117  108  116 1   
   118  108  117 1   
   119  109  118 1   
   120  109  119 1   
   121  109  120 1   
   122  121  122 1   
   123  121  127 1   
   124  122  123 1   
   125  122  125 1   
   126  122  128 1   
   127  123  124 2   
   128  123  132 1   
   129  125  126 1   
   130  125  129 1   
   131  125  130 1   
   132  126  131 1   
   133  132  133 1   
   134  132  137 1   
   135  133  134 1   
   136  133  136 1   
   137  133  138 1   
   138  134  135 2   
   139  134  142 1   
   140  136  139 1   
   141  136  140 1   
   142  136  141 1   
   143  142  143 1   
   144  142  147 1   
   145  143  144 1   
   146  143  146 1   
   147  143  148 1   
   148  144  145 2   
   149  144  152 1   
   150  146  149 1   
   151  146  150 1   
   152  146  151 1   
   153  152  153 1   
   154  152  161 1   
   155  153  154 1   
   156  153  156 1   
   157  153  162 1   
   158  154  155 2   
   159  154  167 1   
   160  156  157 1   
   161  156  163 1   
   162  156  164 1   
   163  157  158 1   
   164  157  165 1   
   165  157  166 1   
   166  158  159 1   
   167  158  160 1   
   168  167  168 1   
   169  167  172 1   
   170  168  169 1   
   171  168  170 1   
   172  168  171 1   
   173  174  175 1   
   174  174  176 1   
   175  177  178 1   
   176  177  179 1   
@<TRIPOS>SUBSTRUCTURE
     1 MOL         1 TEMP              0 ****  ****    0 ROOT
