@<TRIPOS>MOLECULE
MOL
  175   173     1     0     0
SMALL
resp


@<TRIPOS>ATOM
      1 C1         -6.7450    7.9520    1.5960 c3        1 MOL     -0.366424
      2 C2         -7.6890    7.1170    0.8020 c         1 MOL      0.699962
      3 O1         -8.2030    7.5760   -0.1950 o         1 MOL     -0.583167
      4 H1         -7.3060    8.5440    2.3200 hc        1 MOL      0.084190
      5 H2         -6.0410    7.3070    2.1220 hc        1 MOL      0.084190
      6 H3         -6.1990    8.6190    0.9280 hc        1 MOL      0.084190
      7 N1         -7.9910    5.8890    1.2460 n         1 MOL     -0.436511
      8 C3         -9.0280    5.0610    0.6780 c3        1 MOL      0.178498
      9 C4         -8.4010    3.9680   -0.1820 c         1 MOL      0.507236
     10 O2         -9.0570    2.9210   -0.4300 o         1 MOL     -0.567234
     11 C5         -9.9580    4.5470    1.7600 c3        1 MOL     -0.210070
     12 C6        -11.3530    4.1150    1.2700 c         1 MOL      0.725853
     13 O3        -11.9760    4.7650    0.3840 o         1 MOL     -0.730916
     14 O4        -11.9880    3.3480    2.0220 o         1 MOL     -0.730916
     15 H4         -7.6940    5.5900    2.1650 hn        1 MOL      0.230145
     16 H5         -9.5060    5.7310   -0.0370 h1        1 MOL      0.025463
     17 H6        -10.0380    5.3570    2.4950 hc        1 MOL      0.029299
     18 H7         -9.5540    3.6330    2.1830 hc        1 MOL      0.029299
     19 N2         -7.1220    4.0030   -0.4740 n         1 MOL     -0.553622
     20 C7         -6.3660    2.8860   -1.0850 c3        1 MOL      0.573031
     21 C8         -5.1810    2.4140   -0.2290 c         1 MOL      0.440736
     22 O5         -4.5630    3.2260    0.4210 o         1 MOL     -0.504513
     23 C9         -5.9180    3.3260   -2.4630 c3        1 MOL     -0.269214
     24 H8         -6.4840    4.6990   -0.1090 hn        1 MOL      0.209713
     25 H9         -7.0790    2.0850   -1.2340 h1        1 MOL     -0.037361
     26 H10        -6.8140    3.7190   -2.9500 hc        1 MOL      0.061528
     27 H11        -5.2130    4.1480   -2.3740 hc        1 MOL      0.061528
     28 H12        -5.5850    2.5430   -3.1460 hc        1 MOL      0.061528
     29 N3         -4.8060    1.1140   -0.3900 n         1 MOL     -0.570398
     30 C10        -5.1920    0.1460   -1.4750 c3        1 MOL     -0.093890
     31 C11        -5.4570   -1.2710   -0.8360 c         1 MOL      0.696261
     32 O6         -4.9600   -1.6800    0.2220 o         1 MOL     -0.587026
     33 C12        -4.0870    0.1260   -2.5640 c3        1 MOL     -0.005584
     34 C13        -2.7380   -0.3540   -2.1070 c         1 MOL      0.623850
     35 O7         -1.9770    0.4190   -1.4430 o         1 MOL     -0.707707
     36 O8         -2.4440   -1.5480   -2.2070 o         1 MOL     -0.707707
     37 H13        -3.9380    0.8640    0.0510 hn        1 MOL      0.347845
     38 H14        -6.1220    0.4520   -1.9720 h1        1 MOL      0.058212
     39 H15        -4.1050    1.1120   -3.0310 hc        1 MOL     -0.002140
     40 H16        -4.3680   -0.6240   -3.3060 hc        1 MOL     -0.002140
     41 N4         -6.1990   -2.0940   -1.5280 n         1 MOL     -0.437394
     42 C14        -6.9170   -3.2730   -1.0290 c3        1 MOL      0.039801
     43 C15        -6.6630   -4.6350   -1.7250 c         1 MOL      0.460671
     44 O9         -7.5910   -5.2460   -2.2800 o         1 MOL     -0.535651
     45 H17        -6.2510   -1.9660   -2.5330 hn        1 MOL      0.294956
     46 H18        -7.9730   -3.0380   -0.9650 h1        1 MOL      0.072679
     47 H19        -6.6050   -3.3990    0.0080 h1        1 MOL      0.072679
     48 N5         -5.4140   -5.1240   -1.9860 n         1 MOL     -0.416169
     49 C16        -4.1470   -4.6520   -1.3080 c3        1 MOL     -0.037353
     50 C17        -3.8740   -5.3190    0.1150 c         1 MOL      0.520478
     51 O10        -3.8730   -6.5330    0.3530 o         1 MOL     -0.520445
     52 C18        -2.9790   -4.8870   -2.2630 c3        1 MOL     -0.158694
     53 C19        -1.6430   -4.3740   -1.8070 c         1 MOL      0.701497
     54 N6         -0.6330   -4.6140   -2.6100 n         1 MOL     -0.831941
     55 O11        -1.4420   -3.7890   -0.7200 o         1 MOL     -0.658306
     56 H20        -5.3550   -6.0420   -2.3850 hn        1 MOL      0.300081
     57 H21        -4.2680   -3.5830   -1.1240 h1        1 MOL      0.091714
     58 H22        -3.2440   -4.5130   -3.2540 hc        1 MOL      0.070224
     59 H23        -2.8630   -5.9720   -2.2900 hc        1 MOL      0.070224
     60 H24        -0.8120   -4.9900   -3.5290 hn        1 MOL      0.372852
     61 H25         0.3100   -4.4000   -2.3370 hn        1 MOL      0.372852
     62 N7         -3.5460   -4.4090    1.0210 n         1 MOL     -0.302868
     63 C20        -3.3290   -4.7340    2.4300 c3        1 MOL     -0.182789
     64 C21        -1.9810   -5.2250    2.8060 c         1 MOL      0.555250
     65 O12        -1.7500   -5.9280    3.7980 o         1 MOL     -0.576960
     66 H26        -3.4260   -3.4400    0.7630 hn        1 MOL      0.313494
     67 H27        -3.9690   -5.5470    2.7660 h1        1 MOL      0.101128
     68 H28        -3.5080   -3.9340    3.1520 h1        1 MOL      0.101128
     69 N8         -0.9680   -4.9430    1.9100 n         1 MOL     -0.223504
     70 C22         0.4820   -5.2100    2.1020 c3        1 MOL     -0.092281
     71 C23         1.1870   -3.9100    1.9030 c         1 MOL      0.538138
     72 O13         0.6370   -2.9720    1.3930 o         1 MOL     -0.581172
     73 C24         1.0590   -6.2290    1.0860 c3        1 MOL      0.448736
     74 C25         0.8160   -7.7000    1.5080 c3        1 MOL     -0.598652
     75 O14         0.3860   -6.1390   -0.1630 oh        1 MOL     -0.598454
     76 H29        -1.1640   -4.3090    1.1390 hn        1 MOL      0.172325
     77 H30         0.6780   -5.6350    3.0910 h1        1 MOL      0.069930
     78 H31         2.1320   -6.0760    0.9430 h1        1 MOL      0.011283
     79 H32         0.6820   -5.3900   -0.6850 ho        1 MOL      0.402137
     80 H33         1.2950   -7.8120    2.4870 hc        1 MOL      0.154054
     81 H34        -0.2650   -7.8350    1.4590 hc        1 MOL      0.154054
     82 H35         1.1980   -8.4130    0.7760 hc        1 MOL      0.154054
     83 N9          2.4500   -3.8290    2.3310 n         1 MOL     -0.406500
     84 C26         3.3730   -2.6990    2.2070 c3        1 MOL      0.049071
     85 C27         4.2430   -3.0070    1.0490 c         1 MOL      0.576108
     86 O15         5.0140   -3.9560    1.0500 o         1 MOL     -0.582478
     87 C28         4.1470   -2.4780    3.5270 c3        1 MOL      0.079082
     88 C29         5.2380   -1.4100    3.4010 c3        1 MOL      0.043730
     89 C30         3.1780   -2.0780    4.6030 c3        1 MOL     -0.333837
     90 C31         4.8410    0.0100    2.9570 c3        1 MOL     -0.316924
     91 H36         2.8710   -4.6700    2.7110 hn        1 MOL      0.229253
     92 H37         2.8180   -1.7890    1.9930 h1        1 MOL      0.104145
     93 H38         4.6680   -3.4100    3.7580 hc        1 MOL      0.013312
     94 H39         5.9600   -1.7490    2.6630 hc        1 MOL     -0.012614
     95 H40         5.6010   -1.4460    4.4200 hc        1 MOL     -0.012614
     96 H41         2.9430   -1.0160    4.7060 hc        1 MOL      0.085932
     97 H42         2.2080   -2.5910    4.6530 hc        1 MOL      0.085932
     98 H43         3.5990   -2.2760    5.5890 hc        1 MOL      0.085932
     99 H44         5.7350    0.6290    2.8580 hc        1 MOL      0.082098
    100 H45         4.2920   -0.1230    2.0280 hc        1 MOL      0.082098
    101 H46         4.2060    0.4050    3.7480 hc        1 MOL      0.082098
    102 N10         4.2400   -2.1570    0.0110 n         1 MOL     -0.313529
    103 C32         4.8550   -2.4680   -1.2890 c3        1 MOL      0.019742
    104 C33         5.8640   -1.3480   -1.6960 c         1 MOL      0.488089
    105 O16         6.6840   -1.5950   -2.6080 o         1 MOL     -0.558757
    106 C34         3.7960   -2.7580   -2.4220 c3        1 MOL     -0.195042
    107 C35         2.5900   -3.5480   -1.9080 c         1 MOL      0.631520
    108 O17         2.6610   -4.7860   -1.6100 o         1 MOL     -0.661525
    109 O18         1.5590   -2.8780   -1.5600 o         1 MOL     -0.661525
    110 H47         3.4940   -1.4850   -0.0760 hn        1 MOL      0.248713
    111 H48         5.5040   -3.3390   -1.2260 h1        1 MOL      0.108805
    112 H49         4.1560   -3.4360   -3.1990 hc        1 MOL      0.049316
    113 H50         3.5120   -1.8290   -2.9240 hc        1 MOL      0.049316
    114 N11         5.8650   -0.1610   -1.0420 n         1 MOL     -0.433461
    115 C36         6.8370    0.8970   -1.2740 c3        1 MOL      0.202242
    116 C37         6.3720    2.3000   -0.7920 c         1 MOL      0.288725
    117 O19         5.8780    2.3630    0.3540 o         1 MOL     -0.416066
    118 C38         8.1310    0.5540   -0.4300 c3        1 MOL     -0.422045
    119 C39         9.0980    1.6880   -0.1250 ca        1 MOL      0.259165
    120 C40         9.4510    1.7970    1.2160 ca        1 MOL     -0.240026
    121 C41         9.7950    2.3760   -1.1280 ca        1 MOL     -0.240026
    122 C42        10.5600    2.6300    1.5140 ca        1 MOL     -0.053986
    123 C43        10.8250    3.3010   -0.8190 ca        1 MOL     -0.053986
    124 C44        11.2750    3.3510    0.5170 ca        1 MOL     -0.201752
    125 H51         5.2780   -0.2240   -0.2210 hn        1 MOL      0.288579
    126 H52         7.0210    0.9240   -2.3480 h1        1 MOL      0.057336
    127 H53         8.6110   -0.2260   -1.0370 hc        1 MOL      0.146711
    128 H54         7.8290    0.0270    0.4680 hc        1 MOL      0.146711
    129 H55         9.0140    1.2060    2.0050 ha        1 MOL      0.145369
    130 H56         9.4640    2.1880   -2.1450 ha        1 MOL      0.145369
    131 H57        10.9660    2.6390    2.5170 ha        1 MOL      0.097557
    132 H58        11.3530    3.8430   -1.5870 ha        1 MOL      0.097557
    133 H59        12.1700    3.9260    0.7310 ha        1 MOL      0.125319
    134 N12         6.4180    3.3620   -1.6890 n         1 MOL     -0.118296
    135 C45         6.1330    4.7730   -1.2760 c3        1 MOL     -0.039703
    136 C46         4.8410    5.1350   -0.6140 c         1 MOL      0.368876
    137 O20         4.6780    6.2460   -0.0800 o         1 MOL     -0.542667
    138 C47         6.3740    5.6490   -2.5730 c3        1 MOL      0.068094
    139 C48         7.3340    4.8140   -3.4220 c3        1 MOL     -0.179458
    140 C49         6.8570    3.3310   -3.0530 c3        1 MOL     -0.022158
    141 H60         7.0040    4.9670   -0.6410 h1        1 MOL      0.105599
    142 H61         5.4800    5.9280   -3.1280 hc        1 MOL      0.033508
    143 H62         6.8490    6.5770   -2.2230 hc        1 MOL      0.033508
    144 H63         7.0580    5.0310   -4.4580 hc        1 MOL      0.063601
    145 H64         8.3790    5.0010   -3.1820 hc        1 MOL      0.063601
    146 H65         6.0010    3.1090   -3.6970 h1        1 MOL      0.055227
    147 H66         7.6650    2.6200   -3.2660 h1        1 MOL      0.055227
    148 N13         3.8590    4.2620   -0.5610 n         1 MOL     -0.259927
    149 C50         2.5490    4.4410    0.1760 c3        1 MOL     -0.102777
    150 C51         2.6050    4.9950    1.6280 c         1 MOL      0.554816
    151 O21         1.6870    5.7650    2.0410 o         1 MOL     -0.552729
    152 C52         1.7400    3.1240    0.0710 c3        1 MOL     -0.087834
    153 C53         2.2670    2.0510    0.9830 c3        1 MOL      0.105157
    154 C54         1.6150    0.6300    0.6690 c         1 MOL      0.677750
    155 O22         0.4150    0.6280    0.7930 o         1 MOL     -0.739499
    156 O23         2.2170   -0.2820    0.1430 o         1 MOL     -0.739499
    157 H67         4.1920    3.3710   -0.9040 hn        1 MOL      0.200341
    158 H68         1.9670    5.1550   -0.4110 h1        1 MOL      0.111292
    159 H69         1.7920    2.8650   -0.9830 hc        1 MOL      0.065912
    160 H70         0.7220    3.3460    0.3800 hc        1 MOL      0.065912
    161 H71         2.0830    2.2560    2.0430 hc        1 MOL     -0.056641
    162 H72         3.3510    1.9750    0.9350 hc        1 MOL     -0.056641
    163 N14         3.7050    4.7210    2.3600 n         1 MOL     -0.200962
    164 C55         4.0080    5.1960    3.7430 c3        1 MOL     -0.175404
    165 H73         3.2880    5.9630    4.0280 h1        1 MOL      0.085319
    166 H74         3.9420    4.3590    4.4380 h1        1 MOL      0.085319
    167 H75         5.0150    5.6150    3.7710 h1        1 MOL      0.085319
    168 H76         4.4970    4.2640    1.9290 hn        1 MOL      0.216532
    169 Ca1        -0.2940   -1.3730   -0.5650 Ca        1 MOL      1.728209
    170 O24        -2.2830   -1.3800    1.1120 oh        1 MOL     -0.799390
    171 H77        -2.1630   -0.4870    1.4490 ho        1 MOL      0.388954
    172 H78        -3.2280   -1.4400    0.9450 ho        1 MOL      0.388954
    173 O25         0.3630   -0.3950   -2.9330 oh        1 MOL     -0.799390
    174 H79         0.6120   -1.0480   -3.5910 ho        1 MOL      0.388954
    175 H80        -0.1570    0.2450   -3.4160 ho        1 MOL      0.388954
@<TRIPOS>BOND
     1    1    2 1   
     2    1    4 1   
     3    1    5 1   
     4    1    6 1   
     5    2    3 2   
     6    2    7 1   
     7    7    8 1   
     8    7   15 1   
     9    8    9 1   
    10    8   11 1   
    11    8   16 1   
    12    9   10 2   
    13    9   19 1   
    14   11   12 1   
    15   11   17 1   
    16   11   18 1   
    17   12   13 1   
    18   12   14 1   
    19   19   20 1   
    20   19   24 1   
    21   20   21 1   
    22   20   23 1   
    23   20   25 1   
    24   21   22 2   
    25   21   29 1   
    26   23   26 1   
    27   23   27 1   
    28   23   28 1   
    29   29   30 1   
    30   29   37 1   
    31   30   31 1   
    32   30   33 1   
    33   30   38 1   
    34   31   32 2   
    35   31   41 1   
    36   33   34 1   
    37   33   39 1   
    38   33   40 1   
    39   34   35 1   
    40   34   36 1   
    41   41   42 1   
    42   41   45 1   
    43   42   43 1   
    44   42   46 1   
    45   42   47 1   
    46   43   44 2   
    47   43   48 1   
    48   48   49 1   
    49   48   56 1   
    50   49   50 1   
    51   49   52 1   
    52   49   57 1   
    53   50   51 2   
    54   50   62 1   
    55   52   53 1   
    56   52   58 1   
    57   52   59 1   
    58   53   54 1   
    59   53   55 2   
    60   54   60 1   
    61   54   61 1   
    62   62   63 1   
    63   62   66 1   
    64   63   64 1   
    65   63   67 1   
    66   63   68 1   
    67   64   65 2   
    68   64   69 1   
    69   69   70 1   
    70   69   76 1   
    71   70   71 1   
    72   70   73 1   
    73   70   77 1   
    74   71   72 2   
    75   71   83 1   
    76   73   74 1   
    77   73   75 1   
    78   73   78 1   
    79   74   80 1   
    80   74   81 1   
    81   74   82 1   
    82   75   79 1   
    83   83   84 1   
    84   83   91 1   
    85   84   85 1   
    86   84   87 1   
    87   84   92 1   
    88   85   86 2   
    89   85  102 1   
    90   87   88 1   
    91   87   89 1   
    92   87   93 1   
    93   88   90 1   
    94   88   94 1   
    95   88   95 1   
    96   89   96 1   
    97   89   97 1   
    98   89   98 1   
    99   90   99 1   
   100   90  100 1   
   101   90  101 1   
   102  102  103 1   
   103  102  110 1   
   104  103  104 1   
   105  103  106 1   
   106  103  111 1   
   107  104  105 2   
   108  104  114 1   
   109  106  107 1   
   110  106  112 1   
   111  106  113 1   
   112  107  108 1   
   113  107  109 1   
   114  114  115 1   
   115  114  125 1   
   116  115  116 1   
   117  115  118 1   
   118  115  126 1   
   119  116  117 2   
   120  116  134 1   
   121  118  119 1   
   122  118  127 1   
   123  118  128 1   
   124  119  120 ar  
   125  119  121 ar  
   126  120  122 ar  
   127  120  129 1   
   128  121  123 ar  
   129  121  130 1   
   130  122  124 ar  
   131  122  131 1   
   132  123  124 ar  
   133  123  132 1   
   134  124  133 1   
   135  134  135 1   
   136  134  140 1   
   137  135  136 1   
   138  135  138 1   
   139  135  141 1   
   140  136  137 2   
   141  136  148 1   
   142  138  139 1   
   143  138  142 1   
   144  138  143 1   
   145  139  140 1   
   146  139  144 1   
   147  139  145 1   
   148  140  146 1   
   149  140  147 1   
   150  148  149 1   
   151  148  157 1   
   152  149  150 1   
   153  149  152 1   
   154  149  158 1   
   155  150  151 2   
   156  150  163 1   
   157  152  153 1   
   158  152  159 1   
   159  152  160 1   
   160  153  154 1   
   161  153  161 1   
   162  153  162 1   
   163  154  155 1   
   164  154  156 1   
   165  163  164 1   
   166  163  168 1   
   167  164  165 1   
   168  164  166 1   
   169  164  167 1   
   170  170  171 1   
   171  170  172 1   
   172  173  174 1   
   173  173  175 1   
@<TRIPOS>SUBSTRUCTURE
     1 MOL         1 TEMP              0 ****  ****    0 ROOT
