@<TRIPOS>MOLECULE
MOL
  186   183     1     0     0
SMALL
resp


@<TRIPOS>ATOM
      1 C1          4.4930    3.8610   -4.2280 c3        1 MOL     -0.323124
      2 C2          5.0310    3.2290   -2.9040 c         1 MOL      0.713842
      3 O1          4.3540    3.1570   -1.8880 o         1 MOL     -0.455302
      4 H1          3.5580    4.3830   -4.0270 hc        1 MOL      0.069163
      5 H2          5.2260    4.5670   -4.6180 hc        1 MOL      0.069163
      6 H3          4.3190    3.0740   -4.9620 hc        1 MOL      0.069163
      7 N1          6.1950    2.5800   -3.0140 n         1 MOL     -0.657016
      8 C3          6.6570    1.5130   -2.1620 c3        1 MOL      0.279530
      9 C4          5.5520    0.5540   -1.9570 c         1 MOL      0.131981
     10 O2          5.0950    0.2740   -0.8260 o         1 MOL     -0.455548
     11 C5          7.4370    1.9250   -0.8630 c3        1 MOL     -0.106835
     12 C6          6.8920    3.1480   -0.1640 c         1 MOL      0.686524
     13 O3          5.7980    2.9940    0.4820 o         1 MOL     -0.720838
     14 O4          7.5690    4.1940   -0.0560 o         1 MOL     -0.720838
     15 H4          6.8230    2.7230   -3.7870 hn        1 MOL      0.303537
     16 H5          7.4620    1.0480   -2.7320 h1        1 MOL      0.033164
     17 H6          8.4750    2.0700   -1.1590 hc        1 MOL      0.014028
     18 H7          7.4040    1.1500   -0.0970 hc        1 MOL      0.014028
     19 N2          5.2880   -0.2380   -3.0420 n         1 MOL     -0.396691
     20 C7          4.5610   -1.4720   -3.0450 c3        1 MOL      0.099287
     21 C8          5.2260   -2.5570   -2.2590 c         1 MOL      0.362137
     22 O5          5.3190   -3.6640   -2.7860 o         1 MOL     -0.571477
     23 C9          3.1000   -1.2340   -2.7100 c3        1 MOL      0.274204
     24 C10         2.2320   -2.4550   -2.9790 c3        1 MOL      0.047608
     25 C11         2.4850    0.0080   -3.3810 c3        1 MOL     -0.274459
     26 C12         2.2780   -2.9140   -4.4750 c3        1 MOL     -0.181252
     27 H8          5.8320   -0.0650   -3.8680 hn        1 MOL      0.268765
     28 H9          4.6060   -1.7390   -4.0990 h1        1 MOL      0.036745
     29 H10         3.0640   -1.2110   -1.6180 hc        1 MOL     -0.000451
     30 H11         1.1960   -2.2070   -2.7660 hc        1 MOL      0.009334
     31 H12         2.4720   -3.2810   -2.3090 hc        1 MOL      0.009334
     32 H13         2.7580    0.0470   -4.4400 hc        1 MOL      0.053837
     33 H14         1.3990   -0.0920   -3.4590 hc        1 MOL      0.053837
     34 H15         2.7440    0.8830   -2.7920 hc        1 MOL      0.053837
     35 H16         1.6310   -3.7880   -4.5900 hc        1 MOL      0.021135
     36 H17         2.0660   -2.1660   -5.2380 hc        1 MOL      0.021135
     37 H18         3.2500   -3.3280   -4.7540 hc        1 MOL      0.021135
     38 N3          5.6400   -2.3700   -0.9830 n         1 MOL     -0.120393
     39 C13         6.4640   -3.3310   -0.2320 c3        1 MOL     -0.005752
     40 C14         5.9520   -4.7780   -0.2020 c         1 MOL      0.683283
     41 O6          6.7930   -5.6680   -0.2730 o         1 MOL     -0.602950
     42 C15         6.8500   -2.8440    1.2070 c3        1 MOL     -0.293978
     43 C16         7.3570   -1.3740    1.2730 c         1 MOL      0.771707
     44 O7          8.4340   -1.0430    0.7280 o         1 MOL     -0.715873
     45 O8          6.6960   -0.4880    1.9210 o         1 MOL     -0.715873
     46 H19         5.6160   -1.4130   -0.6710 hn        1 MOL      0.242614
     47 H20         7.4090   -3.4370   -0.7750 h1        1 MOL      0.048082
     48 H21         7.7550   -3.3580    1.5460 hc        1 MOL      0.092409
     49 H22         6.0280   -2.9640    1.9050 hc        1 MOL      0.092409
     50 N4          4.6670   -5.1710   -0.0860 n         1 MOL     -0.653528
     51 C17         3.7520   -4.3940    0.6820 c3        1 MOL      0.126080
     52 C18         3.9510   -4.4580    2.1580 c         1 MOL      0.517062
     53 O9          4.6410   -5.3050    2.7030 o         1 MOL     -0.546570
     54 H23         4.4870   -6.1510   -0.2680 hn        1 MOL      0.334992
     55 H24         2.7460   -4.7640    0.4710 h1        1 MOL      0.084979
     56 H25         3.7030   -3.3500    0.3750 h1        1 MOL      0.084979
     57 N5          3.4650   -3.5110    2.9860 n         1 MOL     -0.545552
     58 C19         2.3110   -2.6030    2.8070 c3        1 MOL      0.163497
     59 C20         2.3600   -1.5760    1.6690 c         1 MOL     -0.020479
     60 O10         3.5030   -1.1650    1.3190 o         1 MOL     -0.580372
     61 C21         2.0360   -1.6730    4.0390 c3        1 MOL     -0.155566
     62 C22         3.3170   -0.8890    4.4520 c         1 MOL      0.716278
     63 O11         3.5450    0.1920    3.8610 o         1 MOL     -0.677849
     64 O12         4.0670   -1.3730    5.3130 o         1 MOL     -0.677849
     65 H26         4.0630   -3.2590    3.7700 hn        1 MOL      0.338524
     66 H27         1.3950   -3.1630    2.5800 h1        1 MOL      0.050126
     67 H28         1.6630   -2.2920    4.8630 hc        1 MOL      0.015833
     68 H29         1.2110   -1.0030    3.8070 hc        1 MOL      0.015833
     69 N6          1.2670   -1.0120    1.2200 n         1 MOL     -0.003716
     70 C23        -0.1140   -1.4670    1.4480 c3        1 MOL     -0.105510
     71 C24        -0.4570   -2.6710    0.6390 c         1 MOL      0.601468
     72 O13         0.4650   -3.2010    0.0280 o         1 MOL     -0.601167
     73 H30         1.3720   -0.0950    0.8020 hn        1 MOL      0.173201
     74 H31        -0.7880   -0.6520    1.1740 h1        1 MOL      0.069913
     75 H32        -0.1920   -1.8550    2.4630 h1        1 MOL      0.069913
     76 N7         -1.7080   -2.9950    0.5360 n         1 MOL     -0.274771
     77 C25        -2.3240   -4.2750   -0.0970 c3        1 MOL     -0.002245
     78 C26        -3.2650   -4.0200   -1.3230 c         1 MOL      0.398009
     79 O14        -3.7820   -4.9470   -1.9350 o         1 MOL     -0.499150
     80 C27        -3.0030   -5.2290    0.9340 c3        1 MOL     -0.168091
     81 C28        -4.0610   -4.6050    1.7730 c3        1 MOL     -0.210676
     82 C29        -5.1640   -3.8960    0.9920 c         1 MOL      0.542649
     83 N8         -6.0940   -4.6670    0.4810 n         1 MOL     -0.786756
     84 O15        -5.1690   -2.6920    0.7380 o         1 MOL     -0.455551
     85 H33        -2.3080   -2.3140    0.9900 hn        1 MOL      0.185592
     86 H34        -1.4110   -4.7370   -0.4720 h1        1 MOL      0.105723
     87 H35        -2.2010   -5.5590    1.6020 hc        1 MOL      0.085720
     88 H36        -3.4180   -6.0490    0.3500 hc        1 MOL      0.085720
     89 H37        -3.5780   -3.8640    2.4100 hc        1 MOL      0.088549
     90 H38        -4.5100   -5.4400    2.3170 hc        1 MOL      0.088549
     91 H39        -6.0350   -5.6720    0.5720 hn        1 MOL      0.378558
     92 H40        -6.8150   -4.2960   -0.1210 hn        1 MOL      0.378558
     93 N9         -3.4770   -2.7080   -1.6070 n         1 MOL     -0.193099
     94 C30        -3.9450   -2.1590   -2.9090 c3        1 MOL     -0.099341
     95 C31        -5.2970   -1.4900   -2.9660 c         1 MOL      0.389269
     96 O16        -5.6910   -1.1230   -4.0490 o         1 MOL     -0.536727
     97 C32        -2.9100   -1.1770   -3.5240 c3        1 MOL      0.126441
     98 C33        -1.4600   -1.6730   -3.5700 c3        1 MOL     -0.038590
     99 C34        -2.9520    0.1660   -2.7570 c3        1 MOL     -0.038590
    100 H41        -3.0020   -2.0100   -1.0600 hn        1 MOL      0.180484
    101 H42        -4.0330   -3.0460   -3.5250 h1        1 MOL      0.109788
    102 H43        -3.0640   -1.0920   -4.5950 hc        1 MOL      0.024499
    103 H44        -1.1630   -1.9740   -2.5660 hc        1 MOL     -0.002417
    104 H45        -1.3950   -2.4070   -4.3790 hc        1 MOL     -0.002417
    105 H46        -0.7990   -0.8630   -3.8840 hc        1 MOL     -0.002417
    106 H47        -2.3270    0.8850   -3.2740 hc        1 MOL     -0.002417
    107 H48        -3.9340    0.6410   -2.7940 hc        1 MOL     -0.002417
    108 H49        -2.5790    0.1090   -1.7330 hc        1 MOL     -0.002417
    109 N10        -6.0510   -1.3620   -1.8300 n         1 MOL     -0.189636
    110 C35        -7.3730   -0.5730   -1.8320 c3        1 MOL     -0.007668
    111 C36        -7.2020    0.7640   -1.0970 c         1 MOL      0.468949
    112 O17        -8.2320    1.3810   -0.9400 o         1 MOL     -0.523140
    113 C37        -8.4410   -1.4260   -1.1250 c3        1 MOL     -0.070611
    114 C38        -8.6960   -2.7910   -1.7200 c         1 MOL      0.681878
    115 N11        -9.2070   -2.8110   -2.9140 n         1 MOL     -0.820077
    116 O18        -8.4440   -3.8430   -1.1610 o         1 MOL     -0.579516
    117 H50        -5.7640   -1.8450   -0.9920 hn        1 MOL      0.172555
    118 H51        -7.6770   -0.3500   -2.8510 h1        1 MOL      0.076539
    119 H52        -9.3830   -0.8870   -1.1980 hc        1 MOL      0.016037
    120 H53        -8.2420   -1.5750   -0.0620 hc        1 MOL      0.016037
    121 H54        -9.0530   -2.0340   -3.5360 hn        1 MOL      0.373321
    122 H55        -9.5040   -3.7010   -3.2950 hn        1 MOL      0.373321
    123 N12        -6.0150    1.1400   -0.5830 n         1 MOL     -0.313063
    124 C39        -5.8850    2.3960    0.1750 c3        1 MOL      0.059011
    125 C40        -4.4130    2.9090    0.4550 c         1 MOL      0.364036
    126 O19        -3.4820    2.1280    0.2990 o         1 MOL     -0.392468
    127 C41        -6.5700    2.1620    1.4560 c3        1 MOL      0.004371
    128 C42        -6.3730    0.8590    2.2410 ca        1 MOL      0.093005
    129 C43        -7.3140   -0.1140    2.2650 ca        1 MOL     -0.264087
    130 C44        -5.1290    0.7290    2.9660 ca        1 MOL     -0.264087
    131 C45        -7.0600   -1.3560    2.9130 ca        1 MOL     -0.078491
    132 C46        -5.0030   -0.4280    3.7190 ca        1 MOL     -0.078491
    133 C47        -5.9200   -1.5070    3.6450 ca        1 MOL      0.149463
    134 O20        -5.6680   -2.6860    4.2830 oh        1 MOL     -0.458780
    135 H56        -5.2080    0.5460   -0.6850 hn        1 MOL      0.209825
    136 H57        -6.4650    3.1500   -0.3670 h1        1 MOL      0.065754
    137 H58        -7.6120    2.3350    1.2070 hc        1 MOL      0.021200
    138 H59        -6.3280    2.9550    2.1620 hc        1 MOL      0.021200
    139 H60        -8.2590    0.0530    1.7780 ha        1 MOL      0.152694
    140 H61        -4.3280    1.4450    3.0770 ha        1 MOL      0.152694
    141 H62        -7.8310   -2.0990    3.0350 ha        1 MOL      0.107006
    142 H63        -4.1100   -0.5290    4.3150 ha        1 MOL      0.107006
    143 H64        -6.3140   -3.3640    4.0510 ho        1 MOL      0.327620
    144 N13        -4.2680    4.1750    0.8790 n         1 MOL     -0.554376
    145 C48        -2.9910    4.8640    1.2030 c3        1 MOL      0.073558
    146 C49        -1.8950    5.1010    0.1130 c         1 MOL      0.226049
    147 O21        -1.2750    6.1270    0.1400 o         1 MOL     -0.469445
    148 C50        -2.1570    4.1360    2.3330 c3        1 MOL      0.318055
    149 C51        -2.8700    4.1480    3.6870 c3        1 MOL     -0.685205
    150 C52        -3.2670    5.6100    4.1160 c         1 MOL      0.780516
    151 O22        -4.4860    5.8650    4.3440 o         1 MOL     -0.733237
    152 O23        -2.4170    6.5820    4.0940 o         1 MOL     -0.733237
    153 H65        -5.0330    4.8160    1.0350 hn        1 MOL      0.350259
    154 H66        -3.2950    5.8530    1.5450 h1        1 MOL      0.126202
    155 H67        -1.2360    4.6990    2.4890 hc        1 MOL      0.004594
    156 H68        -1.7240    3.2070    1.9830 hc        1 MOL      0.004594
    157 H69        -2.1170    3.8710    4.4220 hc        1 MOL      0.155825
    158 H70        -3.6360    3.3660    3.6900 hc        1 MOL      0.155825
    159 N14        -1.6360    4.2110   -0.8390 n         1 MOL     -0.098894
    160 C53        -0.3470    4.4010   -1.6130 c3        1 MOL     -0.183428
    161 C54        -0.5830    5.1300   -2.9120 c         1 MOL      0.456114
    162 O24         0.3280    5.6050   -3.5890 o         1 MOL     -0.556534
    163 C55         0.2710    3.0290   -1.8830 c3        1 MOL      0.009506
    164 C56         0.4110    2.2060   -0.5280 c3        1 MOL      0.304765
    165 C57         1.6010    2.6410    0.3240 c         1 MOL      0.611094
    166 O25         1.7350    3.7750    0.6920 o         1 MOL     -0.641972
    167 O26         2.3300    1.7170    0.7670 o         1 MOL     -0.641972
    168 H71        -2.0490    3.2920   -0.7870 hn        1 MOL      0.144143
    169 H72         0.4330    4.9460   -1.0760 h1        1 MOL      0.193585
    170 H73         1.2700    3.2000   -2.3000 hc        1 MOL      0.002256
    171 H74        -0.3070    2.5160   -2.6510 hc        1 MOL      0.002256
    172 H75         0.6440    1.1770   -0.7820 hc        1 MOL     -0.123445
    173 H76        -0.5090    2.2010    0.0490 hc        1 MOL     -0.123445
    174 N15        -1.8110    5.1830   -3.2930 n         1 MOL     -0.116920
    175 C58        -2.3830    5.9350   -4.3740 c3        1 MOL     -0.219445
    176 H77        -3.3370    6.3560   -4.0580 h1        1 MOL      0.081815
    177 H78        -1.7050    6.7420   -4.6540 h1        1 MOL      0.081815
    178 H79        -2.5410    5.2800   -5.2310 h1        1 MOL      0.081815
    179 H80        -2.4860    4.6730   -2.7230 hn        1 MOL      0.155149
    180 Ca1         4.5610    1.1380    1.6560 Ca        1 MOL      1.703904
    181 O27         3.4240    3.4510    2.6380 oh        1 MOL     -0.853285
    182 H81         2.7800    3.6640    1.9640 ho        1 MOL      0.404545
    183 H82         3.8050    4.2870    2.8850 ho        1 MOL      0.404545
    184 O28         6.4830    2.4620    3.4190 oh        1 MOL     -0.853285
    185 H83         7.2540    2.5000    2.8550 ho        1 MOL      0.404545
    186 H84         6.6950    3.0270    4.1620 ho        1 MOL      0.404545
@<TRIPOS>BOND
     1    1    2 1   
     2    1    4 1   
     3    1    5 1   
     4    1    6 1   
     5    2    3 2   
     6    2    7 1   
     7    7    8 1   
     8    7   15 1   
     9    8    9 1   
    10    8   11 1   
    11    8   16 1   
    12    9   10 2   
    13    9   19 1   
    14   11   12 1   
    15   11   17 1   
    16   11   18 1   
    17   12   13 1   
    18   12   14 1   
    19   19   20 1   
    20   19   27 1   
    21   20   21 1   
    22   20   23 1   
    23   20   28 1   
    24   21   22 2   
    25   21   38 1   
    26   23   24 1   
    27   23   25 1   
    28   23   29 1   
    29   24   26 1   
    30   24   30 1   
    31   24   31 1   
    32   25   32 1   
    33   25   33 1   
    34   25   34 1   
    35   26   35 1   
    36   26   36 1   
    37   26   37 1   
    38   38   39 1   
    39   38   46 1   
    40   39   40 1   
    41   39   42 1   
    42   39   47 1   
    43   40   41 2   
    44   40   50 1   
    45   42   43 1   
    46   42   48 1   
    47   42   49 1   
    48   43   44 1   
    49   43   45 1   
    50   50   51 1   
    51   50   54 1   
    52   51   52 1   
    53   51   55 1   
    54   51   56 1   
    55   52   53 2   
    56   52   57 1   
    57   57   58 1   
    58   57   65 1   
    59   58   59 1   
    60   58   61 1   
    61   58   66 1   
    62   59   60 2   
    63   59   69 1   
    64   61   62 1   
    65   61   67 1   
    66   61   68 1   
    67   62   63 1   
    68   62   64 1   
    69   69   70 1   
    70   69   73 1   
    71   70   71 1   
    72   70   74 1   
    73   70   75 1   
    74   71   72 2   
    75   71   76 1   
    76   76   77 1   
    77   76   85 1   
    78   77   78 1   
    79   77   80 1   
    80   77   86 1   
    81   78   79 2   
    82   78   93 1   
    83   80   81 1   
    84   80   87 1   
    85   80   88 1   
    86   81   82 1   
    87   81   89 1   
    88   81   90 1   
    89   82   83 1   
    90   82   84 2   
    91   83   91 1   
    92   83   92 1   
    93   93   94 1   
    94   93  100 1   
    95   94   95 1   
    96   94   97 1   
    97   94  101 1   
    98   95   96 2   
    99   95  109 1   
   100   97   98 1   
   101   97   99 1   
   102   97  102 1   
   103   98  103 1   
   104   98  104 1   
   105   98  105 1   
   106   99  106 1   
   107   99  107 1   
   108   99  108 1   
   109  109  110 1   
   110  109  117 1   
   111  110  111 1   
   112  110  113 1   
   113  110  118 1   
   114  111  112 2   
   115  111  123 1   
   116  113  114 1   
   117  113  119 1   
   118  113  120 1   
   119  114  115 1   
   120  114  116 2   
   121  115  121 1   
   122  115  122 1   
   123  123  124 1   
   124  123  135 1   
   125  124  125 1   
   126  124  127 1   
   127  124  136 1   
   128  125  126 2   
   129  125  144 1   
   130  127  128 1   
   131  127  137 1   
   132  127  138 1   
   133  128  129 ar  
   134  128  130 ar  
   135  129  131 ar  
   136  129  139 1   
   137  130  132 ar  
   138  130  140 1   
   139  131  133 ar  
   140  131  141 1   
   141  132  133 ar  
   142  132  142 1   
   143  133  134 1   
   144  134  143 1   
   145  144  145 1   
   146  144  153 1   
   147  145  146 1   
   148  145  148 1   
   149  145  154 1   
   150  146  147 2   
   151  146  159 1   
   152  148  149 1   
   153  148  155 1   
   154  148  156 1   
   155  149  150 1   
   156  149  157 1   
   157  149  158 1   
   158  150  151 1   
   159  150  152 1   
   160  159  160 1   
   161  159  168 1   
   162  160  161 1   
   163  160  163 1   
   164  160  169 1   
   165  161  162 2   
   166  161  174 1   
   167  163  164 1   
   168  163  170 1   
   169  163  171 1   
   170  164  165 1   
   171  164  172 1   
   172  164  173 1   
   173  165  166 1   
   174  165  167 1   
   175  174  175 1   
   176  174  179 1   
   177  175  176 1   
   178  175  177 1   
   179  175  178 1   
   180  181  182 1   
   181  181  183 1   
   182  184  185 1   
   183  184  186 1   
@<TRIPOS>SUBSTRUCTURE
     1 MOL         1 TEMP              0 ****  ****    0 ROOT
