@<TRIPOS>MOLECULE
MOL
  179   176     1     0     0
SMALL
resp


@<TRIPOS>ATOM
      1 C1          0.3920   -3.1730    6.2870 c3        1 MOL     -0.421161
      2 C2          0.5360   -3.1510    4.7230 c         1 MOL      0.787191
      3 O1         -0.4370   -3.2760    4.0130 o         1 MOL     -0.619687
      4 H1         -0.4220   -2.5130    6.5860 hc        1 MOL      0.118793
      5 H2          0.1760   -4.1890    6.6180 hc        1 MOL      0.118793
      6 H3          1.3220   -2.8330    6.7430 hc        1 MOL      0.118793
      7 N1          1.7120   -3.0510    4.2120 n         1 MOL     -0.602419
      8 C3          2.1190   -2.9480    2.7760 c3        1 MOL     -0.096807
      9 C4          2.2260   -4.3370    2.1140 c         1 MOL      0.749131
     10 O2          2.8960   -5.2160    2.6290 o         1 MOL     -0.551620
     11 C5          3.3960   -2.1360    2.5210 c3        1 MOL     -0.094624
     12 C6          3.4710   -1.2760    1.2460 c         1 MOL      0.573371
     13 O3          3.7610   -0.0890    1.4130 o         1 MOL     -0.660330
     14 O4          3.4030   -1.7290    0.0890 o         1 MOL     -0.660330
     15 H4          2.4220   -3.0010    4.9300 hn        1 MOL      0.340229
     16 H5          1.3630   -2.4060    2.2200 h1        1 MOL      0.126440
     17 H6          4.2430   -2.8250    2.4260 hc        1 MOL      0.073045
     18 H7          3.6650   -1.5620    3.3980 hc        1 MOL      0.073045
     19 N2          1.7470   -4.4370    0.8380 n         1 MOL     -0.780508
     20 C7          1.7970   -5.6250    0.0250 c3        1 MOL      0.474597
     21 C8          2.9940   -5.5450   -1.0440 c         1 MOL      0.233490
     22 O5          3.5350   -6.6470   -1.3640 o         1 MOL     -0.561512
     23 C9          0.4070   -5.7640   -0.6210 c3        1 MOL     -0.280249
     24 C10         0.4260   -6.8280   -1.6460 c3        1 MOL      0.001543
     25 C11        -1.0460   -7.1360   -1.9660 c3        1 MOL     -0.036726
     26 C12        -1.1560   -8.3390   -2.8460 c3        1 MOL      0.004890
     27 N3         -2.5790   -8.6410   -2.8890 n4        1 MOL     -0.081951
     28 H8          1.3060   -3.6330    0.4160 hn        1 MOL      0.335534
     29 H9          1.9920   -6.5220    0.5950 h1        1 MOL      0.035110
     30 H10         0.2750   -4.8720   -1.2400 hc        1 MOL      0.093486
     31 H11        -0.3390   -5.9670    0.1510 hc        1 MOL      0.093486
     32 H12         0.9240   -7.7420   -1.3260 hc        1 MOL      0.038617
     33 H13         0.9050   -6.4110   -2.5260 hc        1 MOL      0.038617
     34 H14        -1.4010   -6.3740   -2.6510 hc        1 MOL      0.042109
     35 H15        -1.6880   -7.2860   -1.1050 hc        1 MOL      0.042109
     36 H16        -0.6450   -9.1540   -2.3510 hx        1 MOL      0.073908
     37 H17        -0.7130   -8.1070   -3.8210 hx        1 MOL      0.073908
     38 H18        -3.1100   -7.7960   -3.0070 hn        1 MOL      0.201463
     39 H19        -2.7890   -9.3090   -3.6100 hn        1 MOL      0.201463
     40 H20        -2.9170   -9.0270   -2.0110 hn        1 MOL      0.201463
     41 N4          3.5390   -4.4010   -1.3130 n         1 MOL      0.010614
     42 C13         4.7210   -4.2690   -2.2070 c3        1 MOL     -0.001168
     43 C14         6.0400   -3.8300   -1.4500 c         1 MOL      0.451550
     44 O6          7.1300   -4.0840   -1.9580 o         1 MOL     -0.532914
     45 C15         4.4140   -3.2170   -3.3130 c3        1 MOL     -0.266214
     46 C16         4.0020   -1.8200   -2.7220 c         1 MOL      0.629214
     47 O7          4.8720   -1.0190   -2.2670 o         1 MOL     -0.668102
     48 O8          2.8250   -1.4350   -2.8600 o         1 MOL     -0.668102
     49 H21         2.9540   -3.6100   -1.0790 hn        1 MOL      0.077020
     50 H22         4.9200   -5.2130   -2.6940 h1        1 MOL      0.104045
     51 H23         3.6330   -3.5490   -4.0010 hc        1 MOL      0.094586
     52 H24         5.3810   -3.1340   -3.8120 hc        1 MOL      0.094586
     53 N5          5.8870   -3.1160   -0.3060 n         1 MOL     -0.145576
     54 C17         6.9210   -2.7620    0.6870 c3        1 MOL     -0.095883
     55 C18         7.2490   -1.2850    0.8700 c         1 MOL      0.498916
     56 O9          8.0330   -0.9570    1.8050 o         1 MOL     -0.569514
     57 H25         4.9210   -2.8960   -0.0920 hn        1 MOL      0.038775
     58 H26         7.8980   -3.2300    0.5280 h1        1 MOL      0.089941
     59 H27         6.5070   -3.1140    1.6260 h1        1 MOL      0.089941
     60 N6          6.7430   -0.3470    0.0110 n         1 MOL     -0.198214
     61 C19         7.3480    0.9490   -0.2220 c3        1 MOL      0.037069
     62 C20         6.3530    2.0540   -0.4280 c         1 MOL      0.608466
     63 O10         5.2010    1.7130   -0.8050 o         1 MOL     -0.548484
     64 C21         8.4230    0.7110   -1.2950 c3        1 MOL     -0.338122
     65 C22         9.6830    1.4960   -0.9480 c         1 MOL      0.657309
     66 N7         10.7130    0.9000   -0.4510 n         1 MOL     -0.719616
     67 O11         9.7200    2.7520   -1.0670 o         1 MOL     -0.604449
     68 H28         6.1430   -0.7190   -0.7090 hn        1 MOL      0.212389
     69 H29         7.8420    1.2400    0.7040 h1        1 MOL      0.043236
     70 H30         7.9940    1.1520   -2.2000 hc        1 MOL      0.117434
     71 H31         8.7210   -0.3220   -1.4390 hc        1 MOL      0.117434
     72 H32        10.7490   -0.0980   -0.3560 hn        1 MOL      0.360811
     73 H33        11.4150    1.4300    0.0490 hn        1 MOL      0.360811
     74 N8          6.7220    3.2850   -0.3470 n         1 MOL     -0.402765
     75 C23         5.8690    4.4380   -0.5990 c3        1 MOL     -0.190560
     76 C24         4.6380    4.5420    0.2180 c         1 MOL      0.624662
     77 O12         4.6610    4.3040    1.4280 o         1 MOL     -0.496558
     78 H34         7.6490    3.4880   -0.0020 hn        1 MOL      0.336243
     79 H35         5.5250    4.5270   -1.6190 h1        1 MOL      0.118229
     80 H36         6.4100    5.3620   -0.3580 h1        1 MOL      0.118229
     81 N9          3.4540    4.8500   -0.3980 n         1 MOL     -0.576576
     82 C25         2.1080    4.8110    0.2750 c3        1 MOL     -0.024562
     83 C26         1.6820    3.3570    0.6520 c         1 MOL      0.591975
     84 O13         2.3810    2.3930    0.3000 o         1 MOL     -0.500131
     85 C27         1.1240    5.4860   -0.6410 c3        1 MOL     -0.145679
     86 C28         1.3000    6.9880   -0.7410 ca        1 MOL      0.100444
     87 C29         1.3680    7.8580    0.4150 ca        1 MOL     -0.175018
     88 C30         1.2850    7.5700   -2.0260 ca        1 MOL     -0.175018
     89 C31         1.5620    9.2010    0.2960 ca        1 MOL     -0.238811
     90 C32         1.4000    8.9810   -2.2020 ca        1 MOL     -0.238811
     91 C33         1.5840    9.7510   -1.0000 ca        1 MOL      0.320390
     92 O14         1.6790   11.1360   -1.1770 oh        1 MOL     -0.500565
     93 H37         3.3600    4.9910   -1.3850 hn        1 MOL      0.308279
     94 H38         2.1780    5.4130    1.1860 h1        1 MOL      0.129529
     95 H39         0.1380    5.3160   -0.2030 hc        1 MOL      0.044317
     96 H40         1.1660    5.0400   -1.6360 hc        1 MOL      0.044317
     97 H41         1.2980    7.4130    1.3930 ha        1 MOL      0.133904
     98 H42         1.1620    6.9280   -2.8840 ha        1 MOL      0.133904
     99 H43         1.6040    9.8030    1.1930 ha        1 MOL      0.169667
    100 H44         1.4610    9.3810   -3.2020 ha        1 MOL      0.169667
    101 H45         1.4040   11.6090   -0.3920 ho        1 MOL      0.373065
    102 N10         0.5480    3.2350    1.4030 n         1 MOL     -0.647794
    103 C34         0.0870    1.9830    2.1100 c3        1 MOL      0.112178
    104 C35        -0.1430    0.7220    1.2100 c         1 MOL      0.545693
    105 O15         0.8040    0.2180    0.5690 o         1 MOL     -0.537348
    106 C36         1.0830    1.5860    3.2560 c3        1 MOL      0.362448
    107 C37         0.7720    0.3630    4.0680 c3        1 MOL     -0.537641
    108 C38         1.3110    2.7890    4.2210 c3        1 MOL     -0.079747
    109 C39        -0.6360    0.2400    4.6000 c3        1 MOL     -0.023026
    110 H46         0.0730    4.0970    1.6420 hn        1 MOL      0.360993
    111 H47        -0.8910    2.1710    2.5470 h1        1 MOL      0.014610
    112 H48         2.0730    1.3660    2.8250 hc        1 MOL      0.006917
    113 H49         1.3570    0.4270    4.9700 hc        1 MOL      0.164339
    114 H50         0.9340   -0.5050    3.4230 hc        1 MOL      0.164339
    115 H51         2.1510    2.6550    4.8970 hc        1 MOL      0.008973
    116 H52         1.5170    3.6550    3.6060 hc        1 MOL      0.008973
    117 H53         0.4160    3.0680    4.7880 hc        1 MOL      0.008973
    118 H54        -1.3110    0.1940    3.7370 hc        1 MOL      0.016279
    119 H55        -0.8550   -0.5900    5.2630 hc        1 MOL      0.016279
    120 H56        -0.9060    1.1410    5.1610 hc        1 MOL      0.016279
    121 N11        -1.3750    0.2260    1.0620 n         1 MOL     -0.538421
    122 C40        -1.7230   -0.8860    0.1560 c3        1 MOL     -0.243029
    123 C41        -3.2040   -0.9570   -0.3100 c         1 MOL      0.772350
    124 O16        -3.5300   -1.7100   -1.1690 o         1 MOL     -0.552665
    125 C42        -1.3990   -2.1670    0.9610 c3        1 MOL      0.498426
    126 O17        -2.3270   -2.3240    2.0730 oh        1 MOL     -0.629363
    127 H57        -2.0010    0.5190    1.7920 hn        1 MOL      0.362479
    128 H58        -1.2290   -0.8100   -0.8130 h1        1 MOL      0.169818
    129 H59        -0.3470   -2.1320    1.2610 h1        1 MOL     -0.101614
    130 H60        -1.5320   -2.9790    0.2500 h1        1 MOL     -0.101614
    131 H61        -1.8250   -2.6940    2.8090 ho        1 MOL      0.396754
    132 N12        -4.1440   -0.1630    0.3030 n         1 MOL     -0.647652
    133 C43        -5.5820   -0.0460   -0.0080 c3        1 MOL      0.243136
    134 C44        -5.7640    0.6020   -1.4210 c         1 MOL      0.499157
    135 O18        -4.8790    1.2760   -1.9320 o         1 MOL     -0.558405
    136 C45        -6.2460    0.7590    1.1450 c3        1 MOL     -0.297221
    137 H62        -3.8180    0.5640    0.9140 hn        1 MOL      0.275636
    138 H63        -6.0140   -1.0440   -0.0150 h1        1 MOL      0.085668
    139 H64        -7.2800    0.4800    0.9430 hc        1 MOL      0.092429
    140 H65        -5.9730    0.3420    2.1100 hc        1 MOL      0.092429
    141 H66        -6.0810    1.8420    1.1290 hc        1 MOL      0.092429
    142 N13        -6.8030    0.3440   -2.2170 n         1 MOL     -0.484433
    143 C46        -8.0890   -0.2340   -1.8900 c3        1 MOL      0.291277
    144 C47        -9.2580    0.4500   -2.5610 c         1 MOL      0.371136
    145 O19        -9.1100    0.9020   -3.7220 o         1 MOL     -0.525393
    146 C48        -8.0970   -1.6930   -2.1600 c3        1 MOL     -0.129214
    147 H67        -6.8060    0.8240   -3.1040 hn        1 MOL      0.301740
    148 H68        -8.2490   -0.1690   -0.8110 h1        1 MOL     -0.040601
    149 H69        -8.0220   -1.9020   -3.2220 hc        1 MOL      0.036894
    150 H70        -7.2210   -2.1780   -1.7380 hc        1 MOL      0.036894
    151 H71        -8.9850   -2.1520   -1.7290 hc        1 MOL      0.036894
    152 N14       -10.4590    0.6520   -1.9470 n         1 MOL     -0.346982
    153 C49       -10.8580    0.2780   -0.5800 c3        1 MOL     -0.251386
    154 C50       -10.2120    1.0950    0.4790 c         1 MOL      0.527420
    155 O20        -9.6880    0.4720    1.4230 o         1 MOL     -0.539443
    156 C51       -12.4260    0.4100   -0.5130 c3        1 MOL     -0.003761
    157 C52       -13.0200   -0.0200    0.8660 c3        1 MOL     -0.275424
    158 C53       -14.5580   -0.0180    0.8080 c         1 MOL      0.713253
    159 O21       -15.1840   -1.0990    1.0370 o         1 MOL     -0.656153
    160 O22       -15.1130    1.0260    0.5290 o         1 MOL     -0.656153
    161 H72       -11.0610    1.2200   -2.5230 hn        1 MOL      0.289818
    162 H73       -10.6530   -0.7850   -0.4280 h1        1 MOL      0.188182
    163 H74       -12.7550   -0.2900   -1.2780 hc        1 MOL      0.051590
    164 H75       -12.7280    1.3860   -0.8770 hc        1 MOL      0.051590
    165 H76       -12.7040    0.7250    1.5980 hc        1 MOL      0.072870
    166 H77       -12.6460   -0.9910    1.1890 hc        1 MOL      0.072870
    167 N15       -10.0510    2.4070    0.3560 n         1 MOL     -0.262878
    168 C54        -9.2690    3.3370    1.1810 c3        1 MOL     -0.251065
    169 H78        -9.7230    3.4160    2.1690 h1        1 MOL      0.116860
    170 H79        -8.2490    2.9670    1.2790 h1        1 MOL      0.116860
    171 H80        -9.2560    4.3200    0.7090 h1        1 MOL      0.116860
    172 H81       -10.3480    2.8280   -0.5090 hn        1 MOL      0.256791
    173 Ca1         2.8320    0.4180   -1.1120 Ca        1 MOL      1.677523
    174 O23         0.2610    0.7420   -2.2820 oh        1 MOL     -0.868868
    175 H82        -0.1490    1.5550   -1.9970 ho        1 MOL      0.433650
    176 H83        -0.2690    0.4530   -3.0270 ho        1 MOL      0.433650
    177 O24         2.7020    2.1060   -3.1730 oh        1 MOL     -0.868868
    178 H84         3.1280    2.9290   -3.3980 ho        1 MOL      0.433650
    179 H85         1.8600    2.1430   -3.6340 ho        1 MOL      0.433650
@<TRIPOS>BOND
     1    1    2 1   
     2    1    4 1   
     3    1    5 1   
     4    1    6 1   
     5    2    3 2   
     6    2    7 1   
     7    7    8 1   
     8    7   15 1   
     9    8    9 1   
    10    8   11 1   
    11    8   16 1   
    12    9   10 2   
    13    9   19 1   
    14   11   12 1   
    15   11   17 1   
    16   11   18 1   
    17   12   13 1   
    18   12   14 1   
    19   19   20 1   
    20   19   28 1   
    21   20   21 1   
    22   20   23 1   
    23   20   29 1   
    24   21   22 2   
    25   21   41 1   
    26   23   24 1   
    27   23   30 1   
    28   23   31 1   
    29   24   25 1   
    30   24   32 1   
    31   24   33 1   
    32   25   26 1   
    33   25   34 1   
    34   25   35 1   
    35   26   27 1   
    36   26   36 1   
    37   26   37 1   
    38   27   38 1   
    39   27   39 1   
    40   27   40 1   
    41   41   42 1   
    42   41   49 1   
    43   42   43 1   
    44   42   45 1   
    45   42   50 1   
    46   43   44 2   
    47   43   53 1   
    48   45   46 1   
    49   45   51 1   
    50   45   52 1   
    51   46   47 1   
    52   46   48 1   
    53   53   54 1   
    54   53   57 1   
    55   54   55 1   
    56   54   58 1   
    57   54   59 1   
    58   55   56 2   
    59   55   60 1   
    60   60   61 1   
    61   60   68 1   
    62   61   62 1   
    63   61   64 1   
    64   61   69 1   
    65   62   63 2   
    66   62   74 1   
    67   64   65 1   
    68   64   70 1   
    69   64   71 1   
    70   65   66 1   
    71   65   67 2   
    72   66   72 1   
    73   66   73 1   
    74   74   75 1   
    75   74   78 1   
    76   75   76 1   
    77   75   79 1   
    78   75   80 1   
    79   76   77 2   
    80   76   81 1   
    81   81   82 1   
    82   81   93 1   
    83   82   83 1   
    84   82   85 1   
    85   82   94 1   
    86   83   84 2   
    87   83  102 1   
    88   85   86 1   
    89   85   95 1   
    90   85   96 1   
    91   86   87 ar  
    92   86   88 ar  
    93   87   89 ar  
    94   87   97 1   
    95   88   90 ar  
    96   88   98 1   
    97   89   91 ar  
    98   89   99 1   
    99   90   91 ar  
   100   90  100 1   
   101   91   92 1   
   102   92  101 1   
   103  102  103 1   
   104  102  110 1   
   105  103  104 1   
   106  103  106 1   
   107  103  111 1   
   108  104  105 2   
   109  104  121 1   
   110  106  107 1   
   111  106  108 1   
   112  106  112 1   
   113  107  109 1   
   114  107  113 1   
   115  107  114 1   
   116  108  115 1   
   117  108  116 1   
   118  108  117 1   
   119  109  118 1   
   120  109  119 1   
   121  109  120 1   
   122  121  122 1   
   123  121  127 1   
   124  122  123 1   
   125  122  125 1   
   126  122  128 1   
   127  123  124 2   
   128  123  132 1   
   129  125  126 1   
   130  125  129 1   
   131  125  130 1   
   132  126  131 1   
   133  132  133 1   
   134  132  137 1   
   135  133  134 1   
   136  133  136 1   
   137  133  138 1   
   138  134  135 2   
   139  134  142 1   
   140  136  139 1   
   141  136  140 1   
   142  136  141 1   
   143  142  143 1   
   144  142  147 1   
   145  143  144 1   
   146  143  146 1   
   147  143  148 1   
   148  144  145 2   
   149  144  152 1   
   150  146  149 1   
   151  146  150 1   
   152  146  151 1   
   153  152  153 1   
   154  152  161 1   
   155  153  154 1   
   156  153  156 1   
   157  153  162 1   
   158  154  155 2   
   159  154  167 1   
   160  156  157 1   
   161  156  163 1   
   162  156  164 1   
   163  157  158 1   
   164  157  165 1   
   165  157  166 1   
   166  158  159 1   
   167  158  160 1   
   168  167  168 1   
   169  167  172 1   
   170  168  169 1   
   171  168  170 1   
   172  168  171 1   
   173  174  175 1   
   174  174  176 1   
   175  177  178 1   
   176  177  179 1   
@<TRIPOS>SUBSTRUCTURE
     1 MOL         1 TEMP              0 ****  ****    0 ROOT
