@<TRIPOS>MOLECULE
MOL
  198   191     1     0     0
SMALL
resp


@<TRIPOS>ATOM
      1 C1          5.2250   -5.0940   -0.2590 c3        1 MOL     -0.429478
      2 C2          4.8070   -3.6810   -0.7230 c         1 MOL      0.723957
      3 O1          5.7040   -2.9410   -1.1810 o         1 MOL     -0.562362
      4 H1          5.3060   -5.7510   -1.1250 hc        1 MOL      0.125439
      5 H2          6.1890   -5.0410    0.2470 hc        1 MOL      0.125439
      6 H3          4.4750   -5.4880    0.4270 hc        1 MOL      0.125439
      7 N1          3.5260   -3.2710   -0.7280 n         1 MOL     -0.820131
      8 C3          2.3320   -4.0690   -0.4090 c3        1 MOL     -0.016040
      9 C4          1.8460   -4.8300   -1.6370 c         1 MOL      0.517515
     10 O2          1.3620   -5.9450   -1.5440 o         1 MOL     -0.601774
     11 C5          1.1740   -3.1360    0.0950 c3        1 MOL     -0.026471
     12 C6          1.5590   -2.3610    1.3750 c         1 MOL      0.739884
     13 O3          2.3100   -2.8120    2.2440 o         1 MOL     -0.713401
     14 O4          0.9590   -1.2050    1.4270 o         1 MOL     -0.713401
     15 H4          3.3520   -2.3290   -1.0360 hn        1 MOL      0.370818
     16 H5          2.6170   -4.7940    0.3550 h1        1 MOL      0.069640
     17 H6          0.3210   -3.7670    0.3230 hc        1 MOL      0.023276
     18 H7          0.9080   -2.4190   -0.6750 hc        1 MOL      0.023276
     19 N2          1.9200   -4.2730   -2.8090 n         1 MOL     -0.161060
     20 C7          1.4420   -4.8660   -4.0930 c3        1 MOL     -0.164078
     21 C8         -0.0540   -4.8490   -4.3640 c         1 MOL      0.395426
     22 O5         -0.4770   -5.4780   -5.3540 o         1 MOL     -0.550236
     23 C9          2.2220   -4.2270   -5.2950 c3        1 MOL      0.182623
     24 C10         1.9770   -2.6930   -5.5010 c3        1 MOL     -0.074562
     25 C11         3.7450   -4.4360   -5.1060 c3        1 MOL     -0.355665
     26 C12         0.6260   -2.0720   -6.0060 c3        1 MOL     -0.246979
     27 H8          2.4240   -3.3930   -2.8730 hn        1 MOL      0.235914
     28 H9          1.7720   -5.9070   -4.1250 h1        1 MOL      0.114382
     29 H10         1.9140   -4.8430   -6.1380 hc        1 MOL      0.016354
     30 H11         2.7530   -2.2840   -6.1420 hc        1 MOL      0.033154
     31 H12         2.2610   -2.1780   -4.5790 hc        1 MOL      0.033154
     32 H13         3.9650   -5.4430   -4.7560 hc        1 MOL      0.074879
     33 H14         4.1530   -4.0730   -6.0540 hc        1 MOL      0.074879
     34 H15         4.2180   -3.6830   -4.4630 hc        1 MOL      0.074879
     35 H16        -0.0920   -2.1300   -5.1830 hc        1 MOL      0.075388
     36 H17         0.8870   -1.0690   -6.3510 hc        1 MOL      0.075388
     37 H18         0.3070   -2.5890   -6.9070 hc        1 MOL      0.075388
     38 N3         -0.8460   -4.2030   -3.5400 n         1 MOL     -0.006542
     39 C13        -2.3160   -4.3690   -3.7160 c3        1 MOL      0.000985
     40 C14        -2.9900   -4.3940   -2.3350 c         1 MOL      0.341647
     41 O6         -2.4100   -3.7990   -1.3860 o         1 MOL     -0.423377
     42 C15        -2.8150   -3.3220   -4.7350 c3        1 MOL     -0.159163
     43 C16        -4.2820   -3.3570   -4.9900 c         1 MOL      0.721087
     44 O7         -4.8620   -4.3910   -5.3200 o         1 MOL     -0.715128
     45 O8         -4.9670   -2.2910   -4.9550 o         1 MOL     -0.715128
     46 H19        -0.5190   -3.6510   -2.7520 hn        1 MOL      0.036943
     47 H20        -2.5760   -5.3390   -4.1220 h1        1 MOL      0.021854
     48 H21        -2.3740   -3.4490   -5.7190 hc        1 MOL      0.034220
     49 H22        -2.4400   -2.3370   -4.4340 hc        1 MOL      0.034220
     50 N4         -4.1490   -4.9830   -2.1490 n         1 MOL     -0.213296
     51 C17        -4.8280   -4.9140   -0.8820 c3        1 MOL     -0.312293
     52 C18        -5.0910   -3.4690   -0.4430 c         1 MOL      0.632573
     53 O9         -5.3250   -2.5260   -1.1740 o         1 MOL     -0.503062
     54 H23        -4.6310   -5.5260   -2.8590 hn        1 MOL      0.268810
     55 H24        -4.2560   -5.4620   -0.1400 h1        1 MOL      0.119806
     56 H25        -5.8420   -5.3090   -0.9560 h1        1 MOL      0.119806
     57 N5         -4.8260   -3.2510    0.8370 n         1 MOL     -0.478491
     58 C19        -4.9240   -1.9680    1.4600 c3        1 MOL      0.113699
     59 C20        -5.8830   -2.0270    2.6790 c         1 MOL      0.473036
     60 O10        -6.1380   -3.0920    3.2140 o         1 MOL     -0.564711
     61 C21        -3.4690   -1.4810    1.8880 c3        1 MOL     -0.273095
     62 C22        -3.0880   -2.1170    3.2530 c         1 MOL      0.861732
     63 O11        -3.4250   -1.5390    4.3440 o         1 MOL     -0.736624
     64 O12        -2.4260   -3.1970    3.2440 o         1 MOL     -0.736624
     65 H26        -4.5830   -4.0180    1.4510 hn        1 MOL      0.268931
     66 H27        -5.3630   -1.1990    0.8200 h1        1 MOL      0.112327
     67 H28        -3.3650   -0.4210    2.1310 hc        1 MOL      0.050050
     68 H29        -2.7330   -1.7740    1.1430 hc        1 MOL      0.050050
     69 N6         -6.5910   -0.9840    2.9900 n         1 MOL     -0.444743
     70 C23        -6.4810    0.3800    2.4700 c3        1 MOL      0.072981
     71 C24        -7.2490    0.5700    1.1030 c         1 MOL      0.462226
     72 O13        -7.7850   -0.3880    0.5690 o         1 MOL     -0.493414
     73 H30        -7.3270   -1.0370    3.6830 hn        1 MOL      0.288423
     74 H31        -5.4300    0.6380    2.4340 h1        1 MOL      0.070544
     75 H32        -6.8030    1.0890    3.2370 h1        1 MOL      0.070544
     76 N7         -7.4500    1.7930    0.5630 n         1 MOL     -0.492354
     77 C25        -6.6000    2.9590    0.7360 c3        1 MOL      0.023991
     78 C26        -5.0910    2.6740    0.3220 c         1 MOL      0.689701
     79 O14        -4.5820    1.5710    0.3230 o         1 MOL     -0.485617
     80 C27        -6.7790    3.5980    2.1660 c3        1 MOL     -0.104713
     81 C28        -8.2220    3.7590    2.5360 c3        1 MOL     -0.255622
     82 C29        -8.2860    4.5490    3.8130 c         1 MOL      0.737914
     83 N8         -8.6640    5.7930    3.8210 n         1 MOL     -0.811398
     84 O15        -8.0390    3.9990    4.8710 o         1 MOL     -0.564978
     85 H33        -8.1010    1.8490   -0.2040 hn        1 MOL      0.315705
     86 H34        -6.9930    3.6510   -0.0100 h1        1 MOL      0.056197
     87 H35        -6.3540    4.6020    2.0660 hc        1 MOL      0.046532
     88 H36        -6.1950    3.0690    2.9170 hc        1 MOL      0.046532
     89 H37        -8.6720    2.8190    2.8490 hc        1 MOL      0.074099
     90 H38        -8.8880    4.1580    1.7720 hc        1 MOL      0.074099
     91 H39        -9.1410    6.2830    3.0750 hn        1 MOL      0.347367
     92 H40        -8.5880    6.4120    4.6170 hn        1 MOL      0.347367
     93 N9         -4.2910    3.7370    0.0140 n         1 MOL     -0.699610
     94 C30        -2.8370    3.5330   -0.2490 c3        1 MOL      0.049194
     95 C31        -2.5420    3.1570   -1.6710 c         1 MOL      0.747259
     96 O16        -3.1580    3.6870   -2.6010 o         1 MOL     -0.578469
     97 C32        -1.9240    4.7180    0.3590 c3        1 MOL      0.317059
     98 C33        -2.1370    4.7580    1.9050 c3        1 MOL     -0.200313
     99 C34        -2.3780    6.1380   -0.0830 c3        1 MOL     -0.200313
    100 H41        -4.5730    4.6890    0.2000 hn        1 MOL      0.320678
    101 H42        -2.5580    2.6750    0.3640 h1        1 MOL      0.079428
    102 H43        -0.8540    4.5900    0.1860 hc        1 MOL     -0.023629
    103 H44        -1.7100    3.8380    2.2990 hc        1 MOL      0.036131
    104 H45        -1.5830    5.6270    2.2660 hc        1 MOL      0.036131
    105 H46        -3.2210    4.8030    2.0190 hc        1 MOL      0.036131
    106 H47        -1.6990    6.8800    0.3300 hc        1 MOL      0.036131
    107 H48        -2.5370    6.3070   -1.1490 hc        1 MOL      0.036131
    108 H49        -3.3400    6.3740    0.3740 hc        1 MOL      0.036131
    109 N10        -1.5020    2.3410   -1.9160 n         1 MOL     -0.834211
    110 C35        -0.9360    2.0380   -3.2520 c3        1 MOL      0.466799
    111 C36         0.5740    2.4030   -3.3060 c         1 MOL      0.253758
    112 O17         1.2370    1.9420   -4.2580 o         1 MOL     -0.523040
    113 C37        -1.1500    0.6300   -3.7870 c3        1 MOL     -0.168707
    114 C38        -0.4550   -0.3600   -2.7980 c         1 MOL      0.387875
    115 N11        -1.3140   -1.1640   -2.1490 n         1 MOL     -0.450729
    116 O18         0.7150   -0.5660   -2.7470 o         1 MOL     -0.462970
    117 H50        -0.9820    1.9310   -1.1530 hn        1 MOL      0.334639
    118 H51        -1.3980    2.6880   -3.9930 h1        1 MOL     -0.013105
    119 H52        -0.7500    0.5260   -4.7980 hc        1 MOL      0.071702
    120 H53        -2.2030    0.4050   -3.9350 hc        1 MOL      0.071702
    121 H54        -2.2550   -0.8200   -1.9990 hn        1 MOL      0.297179
    122 H55        -0.8640   -1.7210   -1.4350 hn        1 MOL      0.297179
    123 N12         1.0410    3.2800   -2.4470 n         1 MOL     -0.130787
    124 C39         2.4920    3.5240   -2.2560 c3        1 MOL      0.111170
    125 C40         2.8140    3.8370   -0.8340 c         1 MOL      0.372124
    126 O19         1.9780    4.3920   -0.1760 o         1 MOL     -0.393979
    127 C41         2.9410    4.6370   -3.1580 c3        1 MOL      0.011322
    128 C42         2.1700    5.9080   -2.9890 ca        1 MOL     -0.052861
    129 C43         2.7490    7.0020   -2.2530 ca        1 MOL     -0.090489
    130 C44         0.8650    5.9700   -3.5320 ca        1 MOL     -0.090489
    131 C45         1.9720    8.0760   -1.9590 ca        1 MOL     -0.307774
    132 C46         0.1020    7.1420   -3.2100 ca        1 MOL     -0.307774
    133 C47         0.6300    8.1530   -2.3740 ca        1 MOL      0.358495
    134 O20         0.0480    9.3820   -2.1720 oh        1 MOL     -0.475508
    135 H56         0.4070    3.6300   -1.7360 hn        1 MOL      0.108754
    136 H57         2.9970    2.5830   -2.4230 h1        1 MOL      0.038616
    137 H58         2.9330    4.3320   -4.2090 hc        1 MOL      0.016489
    138 H59         3.9980    4.8840   -3.0300 hc        1 MOL      0.016489
    139 H60         3.6980    7.0110   -1.7430 ha        1 MOL      0.120451
    140 H61         0.3960    5.2840   -4.2210 ha        1 MOL      0.120451
    141 H62         2.2970    8.9500   -1.4150 ha        1 MOL      0.164535
    142 H63        -0.9140    7.2020   -3.5440 ha        1 MOL      0.164535
    143 H64        -0.6460    9.5040   -2.8240 ho        1 MOL      0.317159
    144 N13         4.0690    3.6920   -0.4440 n         1 MOL     -0.456439
    145 C48         4.5230    4.0120    0.9290 c3        1 MOL      0.158463
    146 C49         5.5680    2.9780    1.3170 c         1 MOL      0.475618
    147 O21         6.7920    3.2250    1.5530 o         1 MOL     -0.511505
    148 C50         5.0210    5.4690    1.0090 c3        1 MOL     -0.307626
    149 C51         5.0150    5.8940    2.4680 c3        1 MOL     -0.045256
    150 C52         5.5000    7.3090    2.6410 c         1 MOL      0.653007
    151 O22         4.9060    8.2400    2.0660 o         1 MOL     -0.730548
    152 O23         6.4920    7.4490    3.3940 o         1 MOL     -0.730548
    153 H65         4.6900    3.1340   -1.0180 hn        1 MOL      0.209324
    154 H66         3.7310    3.7940    1.6500 h1        1 MOL      0.017973
    155 H67         4.3240    6.0320    0.3790 hc        1 MOL      0.134616
    156 H68         6.0210    5.5110    0.5840 hc        1 MOL      0.134616
    157 H69         5.5450    5.2770    3.1930 hc        1 MOL      0.005790
    158 H70         3.9410    5.9070    2.6800 hc        1 MOL      0.005790
    159 N14         5.1560    1.7170    1.1300 n         1 MOL     -0.323164
    160 C53         5.9460    0.5400    0.9360 c3        1 MOL      0.172525
    161 C54         6.2830    0.3110   -0.5330 c         1 MOL      0.297136
    162 O24         7.4360    0.0090   -0.8450 o         1 MOL     -0.495039
    163 C55         5.4350   -0.6910    1.5690 c3        1 MOL      0.144603
    164 C56         5.2130   -0.3520    3.0590 c3        1 MOL     -0.344848
    165 C57         4.5690   -1.5340    3.8520 c         1 MOL      0.827547
    166 O25         5.1440   -2.6290    3.7940 o         1 MOL     -0.745188
    167 O26         3.5570   -1.4190    4.5520 o         1 MOL     -0.745188
    168 H71         4.2210    1.5380    0.7860 hn        1 MOL      0.238244
    169 H72         6.9270    0.7390    1.3740 h1        1 MOL      0.026889
    170 H73         6.1870   -1.4750    1.4530 hc        1 MOL      0.011452
    171 H74         4.4500   -0.9910    1.2140 hc        1 MOL      0.011452
    172 H75         4.5170    0.4840    3.1640 hc        1 MOL      0.038292
    173 H76         6.1530   -0.0450    3.5120 hc        1 MOL      0.038292
    174 N15         5.2960    0.5290   -1.4970 n         1 MOL     -0.092202
    175 C58         5.6080    0.5250   -2.9110 c3        1 MOL     -0.224863
    176 H77         5.3370   -0.4410   -3.3390 h1        1 MOL      0.089516
    177 H78         5.0450    1.3130   -3.4100 h1        1 MOL      0.089516
    178 H79         6.6760    0.6960   -3.0490 h1        1 MOL      0.089516
    179 H80         4.3330    0.4630   -1.2010 hn        1 MOL      0.182643
    180 Ca1         2.5000   -3.8030    4.5880 Ca        1 MOL      1.705979
    181 O27         3.7770   -3.3280    6.9970 oh        1 MOL     -0.765898
    182 H81         3.2470   -3.8420    7.6060 ho        1 MOL      0.366288
    183 H82         4.1380   -2.6140    7.5320 ho        1 MOL      0.366288
    184 O28        -0.0280   -4.1270    3.6450 oh        1 MOL     -0.765898
    185 H83        -0.4460   -4.9760    3.7930 ho        1 MOL      0.366288
    186 H84        -0.7590   -3.5200    3.5550 ho        1 MOL      0.366288
    187 O29         0.8920   -2.4520    6.4180 oh        1 MOL     -0.765898
    188 H85         0.1900   -1.8110    6.4700 ho        1 MOL      0.366288
    189 H86         1.2090   -2.5490    7.3200 ho        1 MOL      0.366288
    190 O30         4.4510   -5.6050    4.6700 oh        1 MOL     -0.765898
    191 H87         5.3780   -5.5430    4.8980 ho        1 MOL      0.366288
    192 H88         4.3310   -6.5200    4.3970 ho        1 MOL      0.366288
    193 O31         2.0950   -5.7300    2.7670 oh        1 MOL     -0.765898
    194 H89         2.4550   -6.3650    2.1450 ho        1 MOL      0.366288
    195 H90         1.3860   -5.2970    2.2930 ho        1 MOL      0.366288
    196 O32         1.5570   -5.4320    6.6220 oh        1 MOL     -0.765898
    197 H91         1.1180   -6.2140    6.9620 ho        1 MOL      0.366288
    198 H92         1.6600   -4.8610    7.3940 ho        1 MOL      0.366288
@<TRIPOS>BOND
     1    1    2 1   
     2    1    4 1   
     3    1    5 1   
     4    1    6 1   
     5    2    3 2   
     6    2    7 1   
     7    7    8 1   
     8    7   15 1   
     9    8    9 1   
    10    8   11 1   
    11    8   16 1   
    12    9   10 2   
    13    9   19 1   
    14   11   12 1   
    15   11   17 1   
    16   11   18 1   
    17   12   13 1   
    18   12   14 1   
    19   19   20 1   
    20   19   27 1   
    21   20   21 1   
    22   20   23 1   
    23   20   28 1   
    24   21   22 2   
    25   21   38 1   
    26   23   24 1   
    27   23   25 1   
    28   23   29 1   
    29   24   26 1   
    30   24   30 1   
    31   24   31 1   
    32   25   32 1   
    33   25   33 1   
    34   25   34 1   
    35   26   35 1   
    36   26   36 1   
    37   26   37 1   
    38   38   39 1   
    39   38   46 1   
    40   39   40 1   
    41   39   42 1   
    42   39   47 1   
    43   40   41 2   
    44   40   50 1   
    45   42   43 1   
    46   42   48 1   
    47   42   49 1   
    48   43   44 1   
    49   43   45 1   
    50   50   51 1   
    51   50   54 1   
    52   51   52 1   
    53   51   55 1   
    54   51   56 1   
    55   52   53 2   
    56   52   57 1   
    57   57   58 1   
    58   57   65 1   
    59   58   59 1   
    60   58   61 1   
    61   58   66 1   
    62   59   60 2   
    63   59   69 1   
    64   61   62 1   
    65   61   67 1   
    66   61   68 1   
    67   62   63 1   
    68   62   64 1   
    69   69   70 1   
    70   69   73 1   
    71   70   71 1   
    72   70   74 1   
    73   70   75 1   
    74   71   72 2   
    75   71   76 1   
    76   76   77 1   
    77   76   85 1   
    78   77   78 1   
    79   77   80 1   
    80   77   86 1   
    81   78   79 2   
    82   78   93 1   
    83   80   81 1   
    84   80   87 1   
    85   80   88 1   
    86   81   82 1   
    87   81   89 1   
    88   81   90 1   
    89   82   83 1   
    90   82   84 2   
    91   83   91 1   
    92   83   92 1   
    93   93   94 1   
    94   93  100 1   
    95   94   95 1   
    96   94   97 1   
    97   94  101 1   
    98   95   96 2   
    99   95  109 1   
   100   97   98 1   
   101   97   99 1   
   102   97  102 1   
   103   98  103 1   
   104   98  104 1   
   105   98  105 1   
   106   99  106 1   
   107   99  107 1   
   108   99  108 1   
   109  109  110 1   
   110  109  117 1   
   111  110  111 1   
   112  110  113 1   
   113  110  118 1   
   114  111  112 2   
   115  111  123 1   
   116  113  114 1   
   117  113  119 1   
   118  113  120 1   
   119  114  115 1   
   120  114  116 2   
   121  115  121 1   
   122  115  122 1   
   123  123  124 1   
   124  123  135 1   
   125  124  125 1   
   126  124  127 1   
   127  124  136 1   
   128  125  126 2   
   129  125  144 1   
   130  127  128 1   
   131  127  137 1   
   132  127  138 1   
   133  128  129 ar  
   134  128  130 ar  
   135  129  131 ar  
   136  129  139 1   
   137  130  132 ar  
   138  130  140 1   
   139  131  133 ar  
   140  131  141 1   
   141  132  133 ar  
   142  132  142 1   
   143  133  134 1   
   144  134  143 1   
   145  144  145 1   
   146  144  153 1   
   147  145  146 1   
   148  145  148 1   
   149  145  154 1   
   150  146  147 2   
   151  146  159 1   
   152  148  149 1   
   153  148  155 1   
   154  148  156 1   
   155  149  150 1   
   156  149  157 1   
   157  149  158 1   
   158  150  151 1   
   159  150  152 1   
   160  159  160 1   
   161  159  168 1   
   162  160  161 1   
   163  160  163 1   
   164  160  169 1   
   165  161  162 2   
   166  161  174 1   
   167  163  164 1   
   168  163  170 1   
   169  163  171 1   
   170  164  165 1   
   171  164  172 1   
   172  164  173 1   
   173  165  166 1   
   174  165  167 1   
   175  174  175 1   
   176  174  179 1   
   177  175  176 1   
   178  175  177 1   
   179  175  178 1   
   180  181  182 1   
   181  181  183 1   
   182  184  185 1   
   183  184  186 1   
   184  187  188 1   
   185  187  189 1   
   186  190  191 1   
   187  190  192 1   
   188  193  194 1   
   189  193  195 1   
   190  196  197 1   
   191  196  198 1   
@<TRIPOS>SUBSTRUCTURE
     1 MOL         1 TEMP              0 ****  ****    0 ROOT
