@<TRIPOS>MOLECULE
MOL
  188   182     1     0     0
SMALL
resp


@<TRIPOS>ATOM
      1 C1          5.4430   -0.3790    5.3070 c3        1 MOL     -0.478869
      2 C2          4.2800   -0.2710    4.2920 c         1 MOL      0.671346
      3 O1          3.0800   -0.1610    4.5600 o         1 MOL     -0.601854
      4 H1          5.4980   -1.3990    5.6880 hc        1 MOL      0.131352
      5 H2          6.3800   -0.1250    4.8140 hc        1 MOL      0.131352
      6 H3          5.2680    0.3090    6.1350 hc        1 MOL      0.131352
      7 N1          4.6030   -0.2060    2.9560 n         1 MOL     -0.445873
      8 C3          3.6120   -0.2600    1.8640 c3        1 MOL      0.042940
      9 C4          3.3800   -1.7090    1.4090 c         1 MOL      0.537875
     10 O2          2.4340   -2.0010    0.6860 o         1 MOL     -0.634685
     11 C5          4.2170    0.5190    0.6270 c3        1 MOL     -0.103795
     12 C6          5.6730    0.3390    0.4520 c         1 MOL      0.589649
     13 O3          6.0680   -0.6580   -0.2460 o         1 MOL     -0.638222
     14 O4          6.4960    1.1250    1.0330 o         1 MOL     -0.638222
     15 H4          5.5710   -0.1430    2.6600 hn        1 MOL      0.257203
     16 H5          2.6180    0.1040    2.1370 h1        1 MOL      0.132842
     17 H6          4.2040    1.5920    0.8550 hc        1 MOL     -0.003401
     18 H7          3.7160    0.4130   -0.3320 hc        1 MOL     -0.003401
     19 N2          4.2880   -2.6160    1.7400 n         1 MOL     -0.467671
     20 C7          4.2920   -4.1160    1.4420 c3        1 MOL      0.141073
     21 C8          4.5220   -4.3870   -0.0230 c         1 MOL      0.446796
     22 O5          5.6200   -4.7980   -0.4730 o         1 MOL     -0.564527
     23 C9          5.3000   -4.6960    2.3400 c3        1 MOL     -0.250139
     24 C10         4.8640   -4.5870    3.7840 c3        1 MOL      0.049701
     25 C11         5.8440   -5.1240    4.8540 c3        1 MOL      0.002942
     26 C12         5.7740   -6.6820    4.9270 c3        1 MOL      0.140083
     27 N3          6.5690   -7.1300    6.1190 n4        1 MOL     -0.452445
     28 H8          5.1000   -2.2770    2.2360 hn        1 MOL      0.322479
     29 H9          3.3270   -4.5480    1.6810 h1        1 MOL      0.085422
     30 H10         6.2920   -4.2540    2.2300 hc        1 MOL      0.093849
     31 H11         5.4420   -5.7490    2.0870 hc        1 MOL      0.093849
     32 H12         3.8910   -5.0410    3.9140 hc        1 MOL     -0.014200
     33 H13         4.7060   -3.5420    4.0220 hc        1 MOL     -0.014200
     34 H14         5.5580   -4.7680    5.8410 hc        1 MOL      0.021013
     35 H15         6.8800   -4.8440    4.6920 hc        1 MOL      0.021013
     36 H16         6.1530   -7.1100    4.0080 hx        1 MOL      0.063002
     37 H17         4.7580   -7.0700    5.0250 hx        1 MOL      0.063002
     38 H18         7.5560   -7.0040    5.9120 hn        1 MOL      0.331269
     39 H19         6.2580   -6.8270    7.0240 hn        1 MOL      0.331269
     40 H20         6.5200   -8.1310    6.2690 hn        1 MOL      0.331269
     41 N4          3.5070   -4.2740   -0.8570 n         1 MOL     -0.318595
     42 C13         3.4810   -4.3010   -2.3050 c3        1 MOL      0.160183
     43 C14         3.5630   -2.9390   -2.9490 c         1 MOL      0.423758
     44 O6          3.0240   -2.8610   -4.0670 o         1 MOL     -0.512283
     45 C15         2.3030   -5.1460   -2.7050 c3        1 MOL     -0.584153
     46 C16         0.8980   -4.7490   -2.2260 c         1 MOL      0.701813
     47 O7          0.6640   -3.8900   -1.3130 o         1 MOL     -0.618056
     48 O8          0.0160   -5.5380   -2.6660 o         1 MOL     -0.618056
     49 H21         2.6600   -3.9850   -0.4020 hn        1 MOL      0.137003
     50 H22         4.3980   -4.8070   -2.5950 h1        1 MOL      0.125127
     51 H23         2.4810   -6.0800   -2.1780 hc        1 MOL      0.168141
     52 H24         2.2830   -5.2870   -3.7840 hc        1 MOL      0.168141
     53 N5          4.1910   -1.9480   -2.3310 n         1 MOL     -0.547503
     54 C17         4.4210   -0.6000   -2.9810 c3        1 MOL      0.294169
     55 C18         5.6700   -0.5030   -3.8930 c         1 MOL      0.450142
     56 O9          6.1660   -1.5400   -4.4290 o         1 MOL     -0.486540
     57 H25         4.6650   -2.0660   -1.4510 hn        1 MOL      0.380576
     58 H26         4.5400    0.1340   -2.1890 h1        1 MOL      0.008077
     59 H27         3.5820   -0.3040   -3.6090 h1        1 MOL      0.008077
     60 N6          6.2390    0.7380   -4.1180 n         1 MOL     -0.542198
     61 C19         5.6120    2.0850   -3.8560 c3        1 MOL      0.175973
     62 C20         6.0260    2.5630   -2.4510 c         1 MOL      0.325532
     63 O10         7.1800    2.4250   -2.0480 o         1 MOL     -0.425380
     64 C21         6.1190    3.1420   -4.9010 c3        1 MOL     -0.320711
     65 C22         5.2630    4.3630   -4.8710 c         1 MOL      0.708310
     66 N7          4.1460    4.3220   -5.5040 n         1 MOL     -0.754925
     67 O11         5.7100    5.4430   -4.4420 o         1 MOL     -0.559649
     68 H28         7.1380    0.7870   -4.5730 hn        1 MOL      0.336087
     69 H29         4.5370    1.9570   -3.9700 h1        1 MOL      0.014121
     70 H30         6.1310    2.5860   -5.8350 hc        1 MOL      0.113256
     71 H31         7.1270    3.4810   -4.6910 hc        1 MOL      0.113256
     72 H32         3.7930    3.4870   -5.9590 hn        1 MOL      0.346785
     73 H33         3.5230    5.1100   -5.6380 hn        1 MOL      0.346785
     74 N8          5.1050    3.2350   -1.7550 n         1 MOL     -0.331051
     75 C23         3.6670    3.3990   -1.9920 c3        1 MOL      0.121160
     76 C24         3.0060    3.9660   -0.7930 c         1 MOL      0.650637
     77 O12         3.6340    4.3020    0.1600 o         1 MOL     -0.525737
     78 H34         5.5660    3.7400   -1.0060 hn        1 MOL      0.292285
     79 H35         3.1640    2.4900   -2.3410 h1        1 MOL     -0.034188
     80 H36         3.5460    4.1340   -2.7850 h1        1 MOL     -0.034188
     81 N9          1.6940    3.9080   -0.7370 n         1 MOL     -0.598589
     82 C25         0.8080    4.3290    0.3910 c3        1 MOL      0.336462
     83 C26        -0.4250    3.3840    0.6860 c         1 MOL      0.327295
     84 O13        -0.5060    2.3800   -0.0300 o         1 MOL     -0.442444
     85 C27         0.4530    5.8580    0.0960 c3        1 MOL     -0.352016
     86 C28        -0.0820    6.6390    1.2320 ca        1 MOL      0.092692
     87 C29        -1.0720    7.5800    0.9590 ca        1 MOL     -0.110030
     88 C30         0.4610    6.5510    2.4980 ca        1 MOL     -0.110030
     89 C31        -1.6780    8.1980    2.0550 ca        1 MOL     -0.297570
     90 C32         0.0730    7.3660    3.5260 ca        1 MOL     -0.297570
     91 C33        -1.1860    8.0930    3.3410 ca        1 MOL      0.416876
     92 O14        -1.6500    8.7820    4.4080 oh        1 MOL     -0.540215
     93 H37         1.2220    3.6620   -1.5900 hn        1 MOL      0.277139
     94 H38         1.3930    4.3390    1.3100 h1        1 MOL      0.020548
     95 H39        -0.2900    5.9240   -0.7010 hc        1 MOL      0.126112
     96 H40         1.2700    6.4350   -0.3280 hc        1 MOL      0.126112
     97 H41        -1.4820    7.7690   -0.0290 ha        1 MOL      0.134926
     98 H42         1.3840    6.0040    2.5320 ha        1 MOL      0.134926
     99 H43        -2.5760    8.7540    1.8590 ha        1 MOL      0.152058
    100 H44         0.5460    7.2420    4.4910 ha        1 MOL      0.152058
    101 H45        -1.2430    8.6210    5.2640 ho        1 MOL      0.396562
    102 N10        -1.2530    3.7100    1.6460 n         1 MOL     -0.355975
    103 C34        -2.5470    3.0190    1.8270 c3        1 MOL      0.093374
    104 C35        -3.4560    3.3050    0.6510 c         1 MOL      0.571302
    105 O15        -3.0910    4.0650   -0.2730 o         1 MOL     -0.548076
    106 C36        -3.1800    3.2170    3.2510 c3        1 MOL      0.044327
    107 C37        -2.1700    2.6820    4.2510 c3        1 MOL      0.125668
    108 C38        -3.6800    4.6350    3.4990 c3        1 MOL     -0.230913
    109 C39        -2.7060    2.6190    5.6820 c3        1 MOL     -0.165670
    110 H46        -1.1000    4.5470    2.1820 hn        1 MOL      0.215143
    111 H47        -2.3850    1.9580    1.6800 h1        1 MOL     -0.040758
    112 H48        -4.0930    2.6510    3.4750 hc        1 MOL      0.042643
    113 H49        -1.3250    3.3610    4.0820 hc        1 MOL     -0.024808
    114 H50        -1.8810    1.6670    3.9750 hc        1 MOL     -0.024808
    115 H51        -3.9940    4.6170    4.5400 hc        1 MOL      0.061327
    116 H52        -3.0130    5.4730    3.3010 hc        1 MOL      0.061327
    117 H53        -4.6020    4.8010    2.9600 hc        1 MOL      0.061327
    118 H54        -3.6370    2.0710    5.8010 hc        1 MOL      0.044094
    119 H55        -1.9060    2.1300    6.2490 hc        1 MOL      0.044094
    120 H56        -2.9100    3.5730    6.1620 hc        1 MOL      0.044094
    121 N11        -4.4280    2.4200    0.4360 n         1 MOL     -0.442446
    122 C40        -5.3690    2.5220   -0.6520 c3        1 MOL      0.112126
    123 C41        -5.5530    1.1800   -1.2770 c         1 MOL      0.319104
    124 O16        -5.4880    0.1150   -0.5900 o         1 MOL     -0.415086
    125 C42        -6.6340    3.1580   -0.0070 c3        1 MOL      0.170983
    126 O17        -6.3270    4.3050    0.6650 oh        1 MOL     -0.570850
    127 H57        -4.5990    1.7360    1.1560 hn        1 MOL      0.254108
    128 H58        -4.9830    3.2380   -1.3800 h1        1 MOL      0.091511
    129 H59        -7.0260    2.4720    0.7440 h1        1 MOL      0.001533
    130 H60        -7.4050    3.3150   -0.7630 h1        1 MOL      0.001533
    131 H61        -7.1850    4.6700    0.8760 ho        1 MOL      0.408323
    132 N12        -5.7890    1.2030   -2.5840 n         1 MOL     -0.448389
    133 C43        -5.9380    0.0450   -3.4790 c3        1 MOL      0.095078
    134 C44        -6.9030   -1.0640   -3.0200 c         1 MOL      0.351492
    135 O18        -6.7890   -2.1640   -3.6030 o         1 MOL     -0.424501
    136 C45        -4.5170   -0.4000   -3.8550 c3        1 MOL     -0.256854
    137 H62        -5.7490    2.1390   -2.9720 hn        1 MOL      0.302049
    138 H63        -6.4020    0.4360   -4.3850 h1        1 MOL      0.089403
    139 H64        -3.9640    0.4930   -4.1300 hc        1 MOL      0.090655
    140 H65        -3.9150   -0.7580   -3.0220 hc        1 MOL      0.090655
    141 H66        -4.5320   -1.1540   -4.6380 hc        1 MOL      0.090655
    142 N13        -7.8510   -0.8120   -2.1660 n         1 MOL     -0.325235
    143 C46        -8.8960   -1.7100   -1.7660 c3        1 MOL      0.385807
    144 C47        -8.4360   -3.0640   -1.1950 c         1 MOL      0.205032
    145 O19        -9.0560   -4.1480   -1.4860 o         1 MOL     -0.468904
    146 C48       -10.0290   -1.7630   -2.8180 c3        1 MOL     -0.413319
    147 H67        -7.8560    0.1320   -1.8100 hn        1 MOL      0.198876
    148 H68        -9.3410   -1.1690   -0.9330 h1        1 MOL     -0.001380
    149 H69        -9.9890   -2.6640   -3.4250 hc        1 MOL      0.110099
    150 H70       -10.9210   -1.6420   -2.2040 hc        1 MOL      0.110099
    151 H71       -10.0200   -0.8880   -3.4660 hc        1 MOL      0.110099
    152 N14        -7.3680   -3.1560   -0.4650 n         1 MOL     -0.219193
    153 C49        -6.6210   -4.3420   -0.0910 c3        1 MOL     -0.055978
    154 C50        -6.9480   -4.7420    1.4510 c         1 MOL      0.473474
    155 O20        -7.0280   -5.9090    1.7180 o         1 MOL     -0.498880
    156 C51        -5.0760   -4.1880   -0.4280 c3        1 MOL      0.219564
    157 C52        -4.3480   -3.2080    0.5530 c3        1 MOL      0.030126
    158 C53        -2.9940   -2.7480    0.1110 c         1 MOL      0.787879
    159 O21        -2.3470   -3.4190   -0.6970 o         1 MOL     -0.801692
    160 O22        -2.4770   -1.7490    0.6150 o         1 MOL     -0.801692
    161 H72        -6.9620   -2.2990   -0.1140 hn        1 MOL      0.165209
    162 H73        -7.0450   -5.1860   -0.6330 h1        1 MOL      0.103755
    163 H74        -5.0690   -3.7930   -1.4380 hc        1 MOL     -0.016140
    164 H75        -4.5890   -5.1670   -0.4290 hc        1 MOL     -0.016140
    165 H76        -4.2050   -3.6840    1.5190 hc        1 MOL     -0.064109
    166 H77        -4.9980   -2.3570    0.7350 hc        1 MOL     -0.064109
    167 N15        -7.0860   -3.6980    2.3130 n         1 MOL     -0.334761
    168 C54        -7.3220   -3.8990    3.7700 c3        1 MOL     -0.127621
    169 H78        -6.4490   -3.5640    4.3290 h1        1 MOL      0.081088
    170 H79        -8.1940   -3.3240    4.0800 h1        1 MOL      0.081088
    171 H80        -7.4950   -4.9580    3.9680 h1        1 MOL      0.081088
    172 H81        -7.1380   -2.7560    1.9730 hn        1 MOL      0.257398
    173 Ca1        -0.1040   -1.7120   -0.3010 Ca        1 MOL      1.770832
    174 O23         0.9160    0.5240   -1.4840 oh        1 MOL     -0.835167
    175 H82         1.0070    0.6860   -2.4140 ho        1 MOL      0.413076
    176 H83         0.4330    1.2800   -1.1420 ho        1 MOL      0.413076
    177 O24         0.1820   -2.9030    2.0540 oh        1 MOL     -0.835167
    178 H84         0.4580   -2.6310    2.9340 ho        1 MOL      0.413076
    179 H85         0.3380   -3.8510    2.0420 ho        1 MOL      0.413076
    180 O25        -0.4770   -1.5290   -3.0040 oh        1 MOL     -0.835167
    181 H86        -0.2630   -1.1810   -3.8710 ho        1 MOL      0.413076
    182 H87        -0.8850   -2.3770   -3.1700 ho        1 MOL      0.413076
    183 O26        -1.9380    0.4030   -1.2620 oh        1 MOL     -0.835167
    184 H88        -2.7130    0.2370   -0.7200 ho        1 MOL      0.413076
    185 H89        -1.9220    1.3540   -1.3740 ho        1 MOL      0.413076
    186 O27         0.2000    0.2150    1.5660 oh        1 MOL     -0.835167
    187 H90         0.4970    0.4140    2.4550 ho        1 MOL      0.413076
    188 H91        -0.2800    0.9890    1.2920 ho        1 MOL      0.413076
@<TRIPOS>BOND
     1    1    2 1   
     2    1    4 1   
     3    1    5 1   
     4    1    6 1   
     5    2    3 2   
     6    2    7 1   
     7    7    8 1   
     8    7   15 1   
     9    8    9 1   
    10    8   11 1   
    11    8   16 1   
    12    9   10 2   
    13    9   19 1   
    14   11   12 1   
    15   11   17 1   
    16   11   18 1   
    17   12   13 1   
    18   12   14 1   
    19   19   20 1   
    20   19   28 1   
    21   20   21 1   
    22   20   23 1   
    23   20   29 1   
    24   21   22 2   
    25   21   41 1   
    26   23   24 1   
    27   23   30 1   
    28   23   31 1   
    29   24   25 1   
    30   24   32 1   
    31   24   33 1   
    32   25   26 1   
    33   25   34 1   
    34   25   35 1   
    35   26   27 1   
    36   26   36 1   
    37   26   37 1   
    38   27   38 1   
    39   27   39 1   
    40   27   40 1   
    41   41   42 1   
    42   41   49 1   
    43   42   43 1   
    44   42   45 1   
    45   42   50 1   
    46   43   44 2   
    47   43   53 1   
    48   45   46 1   
    49   45   51 1   
    50   45   52 1   
    51   46   47 1   
    52   46   48 1   
    53   53   54 1   
    54   53   57 1   
    55   54   55 1   
    56   54   58 1   
    57   54   59 1   
    58   55   56 2   
    59   55   60 1   
    60   60   61 1   
    61   60   68 1   
    62   61   62 1   
    63   61   64 1   
    64   61   69 1   
    65   62   63 2   
    66   62   74 1   
    67   64   65 1   
    68   64   70 1   
    69   64   71 1   
    70   65   66 1   
    71   65   67 2   
    72   66   72 1   
    73   66   73 1   
    74   74   75 1   
    75   74   78 1   
    76   75   76 1   
    77   75   79 1   
    78   75   80 1   
    79   76   77 2   
    80   76   81 1   
    81   81   82 1   
    82   81   93 1   
    83   82   83 1   
    84   82   85 1   
    85   82   94 1   
    86   83   84 2   
    87   83  102 1   
    88   85   86 1   
    89   85   95 1   
    90   85   96 1   
    91   86   87 ar  
    92   86   88 ar  
    93   87   89 ar  
    94   87   97 1   
    95   88   90 ar  
    96   88   98 1   
    97   89   91 ar  
    98   89   99 1   
    99   90   91 ar  
   100   90  100 1   
   101   91   92 1   
   102   92  101 1   
   103  102  103 1   
   104  102  110 1   
   105  103  104 1   
   106  103  106 1   
   107  103  111 1   
   108  104  105 2   
   109  104  121 1   
   110  106  107 1   
   111  106  108 1   
   112  106  112 1   
   113  107  109 1   
   114  107  113 1   
   115  107  114 1   
   116  108  115 1   
   117  108  116 1   
   118  108  117 1   
   119  109  118 1   
   120  109  119 1   
   121  109  120 1   
   122  121  122 1   
   123  121  127 1   
   124  122  123 1   
   125  122  125 1   
   126  122  128 1   
   127  123  124 2   
   128  123  132 1   
   129  125  126 1   
   130  125  129 1   
   131  125  130 1   
   132  126  131 1   
   133  132  133 1   
   134  132  137 1   
   135  133  134 1   
   136  133  136 1   
   137  133  138 1   
   138  134  135 2   
   139  134  142 1   
   140  136  139 1   
   141  136  140 1   
   142  136  141 1   
   143  142  143 1   
   144  142  147 1   
   145  143  144 1   
   146  143  146 1   
   147  143  148 1   
   148  144  145 2   
   149  144  152 1   
   150  146  149 1   
   151  146  150 1   
   152  146  151 1   
   153  152  153 1   
   154  152  161 1   
   155  153  154 1   
   156  153  156 1   
   157  153  162 1   
   158  154  155 2   
   159  154  167 1   
   160  156  157 1   
   161  156  163 1   
   162  156  164 1   
   163  157  158 1   
   164  157  165 1   
   165  157  166 1   
   166  158  159 1   
   167  158  160 1   
   168  167  168 1   
   169  167  172 1   
   170  168  169 1   
   171  168  170 1   
   172  168  171 1   
   173  174  175 1   
   174  174  176 1   
   175  177  178 1   
   176  177  179 1   
   177  180  181 1   
   178  180  182 1   
   179  183  184 1   
   180  183  185 1   
   181  186  187 1   
   182  186  188 1   
@<TRIPOS>SUBSTRUCTURE
     1 MOL         1 TEMP              0 ****  ****    0 ROOT
