@<TRIPOS>MOLECULE
MOL
  189   185     1     0     0
SMALL
resp


@<TRIPOS>ATOM
      1 C1          4.4890    4.4110   -2.7400 c3        1 MOL     -0.337083
      2 C2          5.2330    3.2910   -1.9550 c         1 MOL      0.685373
      3 O1          4.6660    2.7820   -0.9400 o         1 MOL     -0.581328
      4 H1          4.3560    4.1010   -3.7770 hc        1 MOL      0.084956
      5 H2          3.5140    4.5870   -2.2870 hc        1 MOL      0.084956
      6 H3          5.0760    5.3300   -2.7080 hc        1 MOL      0.084956
      7 N1          6.4980    3.0330   -2.1240 n         1 MOL     -0.622613
      8 C3          7.2490    1.8050   -1.7880 c3        1 MOL      0.313166
      9 C4          6.3390    0.5850   -1.5870 c         1 MOL      0.253758
     10 O2          5.9710    0.2460   -0.4280 o         1 MOL     -0.176456
     11 C5          8.3450    2.0410   -0.6980 c3        1 MOL      0.007542
     12 C6          7.9850    2.7820    0.5820 c         1 MOL      0.642815
     13 O3          6.8200    2.7900    1.0000 o         1 MOL     -0.712074
     14 O4          8.8180    3.4500    1.2200 o         1 MOL     -0.712074
     15 H4          6.9820    3.6970   -2.7060 hn        1 MOL      0.296443
     16 H5          7.8340    1.5830   -2.6780 h1        1 MOL     -0.023103
     17 H6          9.1960    2.5720   -1.1260 hc        1 MOL     -0.034601
     18 H7          8.7310    1.0450   -0.4610 hc        1 MOL     -0.034601
     19 N2          5.8510    0.0480   -2.7140 n         1 MOL     -0.551933
     20 C7          4.9220   -1.0680   -2.9410 c3        1 MOL      0.340463
     21 C8          5.4540   -2.3730   -2.3220 c         1 MOL      0.344437
     22 O5          5.5820   -3.2870   -3.1020 o         1 MOL     -0.590676
     23 C9          3.5110   -0.8240   -2.3170 c3        1 MOL      0.053518
     24 C10         2.4810   -1.9130   -2.5950 c3        1 MOL      0.030934
     25 C11         2.8680    0.4770   -2.8440 c3        1 MOL     -0.306405
     26 C12         2.2430   -2.1330   -4.0860 c3        1 MOL     -0.279384
     27 H8          6.3330    0.2070   -3.5870 hn        1 MOL      0.307433
     28 H9          4.8610   -1.2340   -4.0180 h1        1 MOL     -0.001106
     29 H10         3.5800   -0.6400   -1.2400 hc        1 MOL     -0.149247
     30 H11         1.5090   -1.6990   -2.1470 hc        1 MOL      0.017819
     31 H12         2.9470   -2.8070   -2.1780 hc        1 MOL      0.017819
     32 H13         1.7720    0.4900   -2.8620 hc        1 MOL      0.056168
     33 H14         3.3760    1.3020   -2.3440 hc        1 MOL      0.056168
     34 H15         3.1500    0.4460   -3.9010 hc        1 MOL      0.056168
     35 H16         2.9890   -2.7590   -4.5640 hc        1 MOL      0.066647
     36 H17         1.3420   -2.7430   -4.2000 hc        1 MOL      0.066647
     37 H18         1.9770   -1.2330   -4.6410 hc        1 MOL      0.066647
     38 N3          5.7880   -2.5950   -1.0690 n         1 MOL      0.009683
     39 C13         6.6350   -3.7040   -0.5910 c3        1 MOL     -0.011985
     40 C14         5.8630   -5.0360   -0.2270 c         1 MOL      0.468479
     41 O6          6.2760   -6.1720   -0.4440 o         1 MOL     -0.601120
     42 C15         7.6210   -3.2720    0.5570 c3        1 MOL     -0.127261
     43 C16         8.4820   -2.0500    0.2670 c         1 MOL      0.658685
     44 O7          8.6150   -1.2520    1.2630 o         1 MOL     -0.686045
     45 O8          8.8950   -1.8860   -0.9140 o         1 MOL     -0.686045
     46 H19         5.7610   -1.7250   -0.5530 hn        1 MOL      0.153914
     47 H20         7.3010   -4.0000   -1.3910 h1        1 MOL      0.057848
     48 H21         8.2620   -4.1130    0.7970 hc        1 MOL      0.026845
     49 H22         7.0510   -3.1680    1.4790 hc        1 MOL      0.026845
     50 N4          4.7560   -4.9940    0.4220 n         1 MOL     -0.358700
     51 C17         3.9930   -3.8280    0.9830 c3        1 MOL     -0.038261
     52 C18         2.7430   -4.2960    1.7950 c         1 MOL      0.493885
     53 O9          2.2780   -5.4580    1.7230 o         1 MOL     -0.579081
     54 H23         4.4240   -5.9240    0.6320 hn        1 MOL      0.256431
     55 H24         3.5490   -3.3380    0.1200 h1        1 MOL      0.127666
     56 H25         4.6620   -3.2140    1.5760 h1        1 MOL      0.127666
     57 N5          2.0810   -3.4710    2.6000 n         1 MOL     -0.380343
     58 C19         2.3190   -2.0030    2.8460 c3        1 MOL      0.079407
     59 C20         2.4800   -1.2190    1.5390 c         1 MOL      0.071122
     60 O10         3.6080   -0.9310    1.0640 o         1 MOL     -0.665121
     61 C21         3.5430   -1.9370    3.8470 c3        1 MOL     -0.309881
     62 C22         3.7110   -0.5610    4.3220 c         1 MOL      0.767801
     63 O11         4.2680   -0.3890    5.4140 o         1 MOL     -0.703208
     64 O12         3.3870    0.4130    3.6190 o         1 MOL     -0.703208
     65 H26         1.3840   -3.9650    3.1340 hn        1 MOL      0.276019
     66 H27         1.5550   -1.5360    3.4750 h1        1 MOL      0.119693
     67 H28         4.4170   -2.3020    3.3020 hc        1 MOL      0.083879
     68 H29         3.4830   -2.6840    4.6410 hc        1 MOL      0.083879
     69 N6          1.4680   -0.9010    0.7310 n         1 MOL      0.004042
     70 C23         0.0340   -1.1060    0.9130 c3        1 MOL     -0.065739
     71 C24        -0.5190   -2.5020    0.7800 c         1 MOL      0.341559
     72 O13         0.1630   -3.3060    0.1400 o         1 MOL     -0.424009
     73 H30         1.7240   -0.3360   -0.0670 hn        1 MOL      0.289503
     74 H31        -0.5710   -0.4420    0.3050 h1        1 MOL      0.063090
     75 H32        -0.1980   -0.7990    1.9300 h1        1 MOL      0.063090
     76 N7         -1.7270   -2.7310    1.3390 n         1 MOL     -0.374949
     77 C25        -2.4730   -3.9570    1.1720 c3        1 MOL      0.015445
     78 C26        -3.1840   -4.0520   -0.1960 c         1 MOL      0.314388
     79 O14        -3.8810   -5.0350   -0.4740 o         1 MOL     -0.546067
     80 C27        -3.4330   -4.1590    2.4020 c3        1 MOL     -0.088988
     81 C28        -4.4150   -3.1070    2.7190 c3        1 MOL     -0.041129
     82 C29        -5.5700   -3.1080    1.8070 c         1 MOL      0.551846
     83 N8         -6.7400   -3.4090    2.2350 n         1 MOL     -0.684997
     84 O15        -5.5150   -2.4770    0.7660 o         1 MOL     -0.469056
     85 H33        -2.1630   -1.9540    1.8210 hn        1 MOL      0.277598
     86 H34        -1.8250   -4.8230    1.3230 h1        1 MOL      0.136739
     87 H35        -2.7640   -4.2360    3.2460 hc        1 MOL      0.042173
     88 H36        -3.8740   -5.1550    2.2720 hc        1 MOL      0.042173
     89 H37        -3.8930   -2.1480    2.6430 hc        1 MOL      0.055469
     90 H38        -4.7220   -3.2310    3.7530 hc        1 MOL      0.055469
     91 H39        -6.9470   -3.7220    3.1660 hn        1 MOL      0.343730
     92 H40        -7.5340   -3.3310    1.6140 hn        1 MOL      0.343730
     93 N9         -3.0740   -3.0630   -0.9980 n         1 MOL     -0.000134
     94 C30        -3.4020   -3.0740   -2.4380 c3        1 MOL     -0.013683
     95 C31        -4.6500   -2.1850   -2.7960 c         1 MOL      0.390424
     96 O16        -4.7120   -1.6840   -3.8990 o         1 MOL     -0.572804
     97 C32        -2.1180   -2.7330   -3.2760 c3        1 MOL      0.025879
     98 C33        -1.0780   -3.8190   -3.1330 c3        1 MOL     -0.094557
     99 C34        -1.5700   -1.3720   -2.8160 c3        1 MOL     -0.094557
    100 H41        -2.5150   -2.3040   -0.6270 hn        1 MOL      0.137984
    101 H42        -3.7530   -4.0890   -2.6630 h1        1 MOL      0.069742
    102 H43        -2.2830   -2.6720   -4.3560 hc        1 MOL      0.044613
    103 H44        -0.3600   -3.8060   -3.9550 hc        1 MOL      0.028028
    104 H45        -0.4850   -3.5940   -2.2520 hc        1 MOL      0.028028
    105 H46        -1.4380   -4.8440   -3.1150 hc        1 MOL      0.028028
    106 H47        -2.3450   -0.6230   -2.9510 hc        1 MOL      0.028028
    107 H48        -1.3930   -1.3170   -1.7410 hc        1 MOL      0.028028
    108 H49        -0.7290   -1.0660   -3.4440 hc        1 MOL      0.028028
    109 N10        -5.4900   -1.9520   -1.8490 n         1 MOL      0.036754
    110 C35        -6.8390   -1.2730   -1.9880 c3        1 MOL      0.055030
    111 C36        -6.7700    0.2070   -1.6090 c         1 MOL      0.459579
    112 O17        -7.6670    0.9280   -1.9260 o         1 MOL     -0.509929
    113 C37        -7.8420   -2.0580   -1.1420 c3        1 MOL     -0.390427
    114 C38        -7.9060   -3.5290   -1.5810 c         1 MOL      0.662661
    115 N11        -7.0200   -4.3470   -1.1060 n         1 MOL     -0.780802
    116 O18        -8.7990   -3.9780   -2.3460 o         1 MOL     -0.581133
    117 H50        -5.2350   -2.2980   -0.9370 hn        1 MOL     -0.075669
    118 H51        -7.3120   -1.4100   -2.9660 h1        1 MOL      0.096590
    119 H52        -8.7400   -1.4820   -1.3570 hc        1 MOL      0.131053
    120 H53        -7.6420   -1.9580   -0.0760 hc        1 MOL      0.131053
    121 H54        -6.2290   -4.1570   -0.5040 hn        1 MOL      0.360653
    122 H55        -6.9700   -5.3080   -1.3980 hn        1 MOL      0.360653
    123 N12        -5.7340    0.6660   -0.8600 n         1 MOL     -0.523831
    124 C39        -5.8180    1.9700   -0.1500 c3        1 MOL      0.586869
    125 C40        -4.4740    2.7130   -0.1210 c         1 MOL      0.150271
    126 O19        -3.4120    2.1710   -0.0210 o         1 MOL     -0.439743
    127 C41        -6.4400    1.8810    1.2330 c3        1 MOL      0.003687
    128 C42        -7.8110    1.2050    1.3260 ca        1 MOL     -0.028727
    129 C43        -8.9300    1.6710    0.7240 ca        1 MOL     -0.117924
    130 C44        -7.8280    0.0580    2.2360 ca        1 MOL     -0.117924
    131 C45       -10.1190    0.9170    0.9040 ca        1 MOL     -0.212246
    132 C46        -9.0550   -0.7090    2.3500 ca        1 MOL     -0.212246
    133 C47       -10.2060   -0.2490    1.6200 ca        1 MOL      0.255699
    134 O20       -11.3480   -1.0240    1.7400 oh        1 MOL     -0.513191
    135 H56        -4.9750    0.0660   -0.5760 hn        1 MOL      0.206628
    136 H57        -6.4240    2.6230   -0.7790 h1        1 MOL     -0.074928
    137 H58        -6.4000    2.8990    1.6070 hc        1 MOL      0.003548
    138 H59        -5.7990    1.3220    1.9110 hc        1 MOL      0.003548
    139 H60        -8.8320    2.6280    0.2380 ha        1 MOL      0.120239
    140 H61        -6.9060   -0.2340    2.7210 ha        1 MOL      0.120239
    141 H62       -10.9320    1.3900    0.3650 ha        1 MOL      0.121866
    142 H63        -9.1540   -1.5470    3.0110 ha        1 MOL      0.121866
    143 H64       -12.0150   -0.7850    1.0990 ho        1 MOL      0.377147
    144 N13        -4.6410    4.0010   -0.0850 n         1 MOL     -0.276729
    145 C48        -3.7090    5.1230    0.3050 c3        1 MOL     -0.005446
    146 C49        -2.3100    5.2850   -0.2980 c         1 MOL      0.535450
    147 O21        -1.8440    6.4160   -0.4160 o         1 MOL     -0.531780
    148 C50        -3.6000    5.3260    1.8360 c3        1 MOL      0.025639
    149 C51        -2.8220    4.3330    2.7000 c3        1 MOL     -0.184473
    150 C52        -3.3080    4.4230    4.1150 c         1 MOL      0.669306
    151 O22        -3.2990    5.5510    4.7310 o         1 MOL     -0.732168
    152 O23        -3.6360    3.3190    4.6630 o         1 MOL     -0.732168
    153 H65        -5.5840    4.2770   -0.2880 hn        1 MOL      0.237903
    154 H66        -4.2550    6.0100   -0.0130 h1        1 MOL      0.037265
    155 H67        -4.6340    5.4940    2.1530 hc        1 MOL      0.008980
    156 H68        -3.2140    6.3250    2.0170 hc        1 MOL      0.008980
    157 H69        -1.7510    4.5430    2.6480 hc        1 MOL      0.062943
    158 H70        -2.9680    3.3450    2.2540 hc        1 MOL      0.062943
    159 N14        -1.6800    4.2040   -0.8370 n         1 MOL     -0.365486
    160 C53        -0.6030    4.4460   -1.7750 c3        1 MOL     -0.169908
    161 C54        -0.9790    5.1870   -3.0400 c         1 MOL      0.518422
    162 O24        -0.0820    5.7440   -3.7370 o         1 MOL     -0.545324
    163 C55         0.1170    3.1190   -2.0070 c3        1 MOL      0.021323
    164 C56         0.3930    2.1950   -0.8480 c3        1 MOL      0.278890
    165 C57         1.4470    2.5970    0.1720 c         1 MOL      0.594369
    166 O25         1.3110    3.6950    0.7650 o         1 MOL     -0.656222
    167 O26         2.3140    1.8000    0.5710 o         1 MOL     -0.656222
    168 H71        -2.1610    3.3260   -0.8800 hn        1 MOL      0.312334
    169 H72         0.1200    5.0690   -1.2550 h1        1 MOL      0.163138
    170 H73         1.0870    3.3500   -2.4540 hc        1 MOL     -0.010714
    171 H74        -0.4480    2.5800   -2.7700 hc        1 MOL     -0.010714
    172 H75         0.5130    1.1790   -1.2250 hc        1 MOL     -0.102352
    173 H76        -0.5150    2.0550   -0.2740 hc        1 MOL     -0.102352
    174 N15        -2.3010    5.2130   -3.3530 n         1 MOL     -0.198025
    175 C58        -2.9170    6.0210   -4.3900 c3        1 MOL     -0.266532
    176 H77        -2.8920    5.4790   -5.3350 h1        1 MOL      0.105410
    177 H78        -3.9510    6.2330   -4.1200 h1        1 MOL      0.105410
    178 H79        -2.3700    6.9580   -4.4960 h1        1 MOL      0.105410
    179 H80        -2.8570    4.8470   -2.6010 hn        1 MOL      0.143381
    180 Ca1         4.5830    1.5010    1.5650 Ca        1 MOL      1.780878
    181 O27         3.6290    4.0360    1.8060 oh        1 MOL     -0.876221
    182 H81         2.7860    3.8240    1.4090 ho        1 MOL      0.407028
    183 H82         3.7200    4.9800    1.7060 ho        1 MOL      0.407028
    184 O28         5.7510    2.8970    3.5840 oh        1 MOL     -0.876221
    185 H83         6.4560    3.4740    3.2600 ho        1 MOL      0.407028
    186 H84         5.8830    2.8760    4.5340 ho        1 MOL      0.407028
    187 O29         6.6200   -0.1510    2.4990 oh        1 MOL     -0.876221
    188 H85         7.2530   -0.4770    1.8480 ho        1 MOL      0.407028
    189 H86         7.1440   -0.0580    3.2960 ho        1 MOL      0.407028
@<TRIPOS>BOND
     1    1    2 1   
     2    1    4 1   
     3    1    5 1   
     4    1    6 1   
     5    2    3 2   
     6    2    7 1   
     7    7    8 1   
     8    7   15 1   
     9    8    9 1   
    10    8   11 1   
    11    8   16 1   
    12    9   10 2   
    13    9   19 1   
    14   11   12 1   
    15   11   17 1   
    16   11   18 1   
    17   12   13 1   
    18   12   14 1   
    19   19   20 1   
    20   19   27 1   
    21   20   21 1   
    22   20   23 1   
    23   20   28 1   
    24   21   22 2   
    25   21   38 1   
    26   23   24 1   
    27   23   25 1   
    28   23   29 1   
    29   24   26 1   
    30   24   30 1   
    31   24   31 1   
    32   25   32 1   
    33   25   33 1   
    34   25   34 1   
    35   26   35 1   
    36   26   36 1   
    37   26   37 1   
    38   38   39 1   
    39   38   46 1   
    40   39   40 1   
    41   39   42 1   
    42   39   47 1   
    43   40   41 2   
    44   40   50 1   
    45   42   43 1   
    46   42   48 1   
    47   42   49 1   
    48   43   44 1   
    49   43   45 1   
    50   50   51 1   
    51   50   54 1   
    52   51   52 1   
    53   51   55 1   
    54   51   56 1   
    55   52   53 2   
    56   52   57 1   
    57   57   58 1   
    58   57   65 1   
    59   58   59 1   
    60   58   61 1   
    61   58   66 1   
    62   59   60 2   
    63   59   69 1   
    64   61   62 1   
    65   61   67 1   
    66   61   68 1   
    67   62   63 1   
    68   62   64 1   
    69   69   70 1   
    70   69   73 1   
    71   70   71 1   
    72   70   74 1   
    73   70   75 1   
    74   71   72 2   
    75   71   76 1   
    76   76   77 1   
    77   76   85 1   
    78   77   78 1   
    79   77   80 1   
    80   77   86 1   
    81   78   79 2   
    82   78   93 1   
    83   80   81 1   
    84   80   87 1   
    85   80   88 1   
    86   81   82 1   
    87   81   89 1   
    88   81   90 1   
    89   82   83 1   
    90   82   84 2   
    91   83   91 1   
    92   83   92 1   
    93   93   94 1   
    94   93  100 1   
    95   94   95 1   
    96   94   97 1   
    97   94  101 1   
    98   95   96 2   
    99   95  109 1   
   100   97   98 1   
   101   97   99 1   
   102   97  102 1   
   103   98  103 1   
   104   98  104 1   
   105   98  105 1   
   106   99  106 1   
   107   99  107 1   
   108   99  108 1   
   109  109  110 1   
   110  109  117 1   
   111  110  111 1   
   112  110  113 1   
   113  110  118 1   
   114  111  112 2   
   115  111  123 1   
   116  113  114 1   
   117  113  119 1   
   118  113  120 1   
   119  114  115 1   
   120  114  116 2   
   121  115  121 1   
   122  115  122 1   
   123  123  124 1   
   124  123  135 1   
   125  124  125 1   
   126  124  127 1   
   127  124  136 1   
   128  125  126 2   
   129  125  144 1   
   130  127  128 1   
   131  127  137 1   
   132  127  138 1   
   133  128  129 ar  
   134  128  130 ar  
   135  129  131 ar  
   136  129  139 1   
   137  130  132 ar  
   138  130  140 1   
   139  131  133 ar  
   140  131  141 1   
   141  132  133 ar  
   142  132  142 1   
   143  133  134 1   
   144  134  143 1   
   145  144  145 1   
   146  144  153 1   
   147  145  146 1   
   148  145  148 1   
   149  145  154 1   
   150  146  147 2   
   151  146  159 1   
   152  148  149 1   
   153  148  155 1   
   154  148  156 1   
   155  149  150 1   
   156  149  157 1   
   157  149  158 1   
   158  150  151 1   
   159  150  152 1   
   160  159  160 1   
   161  159  168 1   
   162  160  161 1   
   163  160  163 1   
   164  160  169 1   
   165  161  162 2   
   166  161  174 1   
   167  163  164 1   
   168  163  170 1   
   169  163  171 1   
   170  164  165 1   
   171  164  172 1   
   172  164  173 1   
   173  165  166 1   
   174  165  167 1   
   175  174  175 1   
   176  174  179 1   
   177  175  176 1   
   178  175  177 1   
   179  175  178 1   
   180  181  182 1   
   181  181  183 1   
   182  184  185 1   
   183  184  186 1   
   184  187  188 1   
   185  187  189 1   
@<TRIPOS>SUBSTRUCTURE
     1 MOL         1 TEMP              0 ****  ****    0 ROOT
