@<TRIPOS>MOLECULE
MOL
  198   191     1     0     0
SMALL
resp


@<TRIPOS>ATOM
      1 C1          3.6970    6.4540   -0.5470 c3        1 MOL     -0.428192
      2 C2          5.2340    6.2220   -0.2610 c         1 MOL      0.726170
      3 O1          5.8020    6.6880    0.7110 o         1 MOL     -0.541309
      4 H1          3.5730    6.8800   -1.5420 hc        1 MOL      0.114526
      5 H2          3.1690    5.5030   -0.4910 hc        1 MOL      0.114526
      6 H3          3.2900    7.1420    0.1950 hc        1 MOL      0.114526
      7 N1          5.9480    5.5150   -1.2400 n         1 MOL     -0.834484
      8 C3          7.3590    5.2130   -1.1950 c3        1 MOL      0.671718
      9 C4          7.7810    4.1950   -0.0450 c         1 MOL      0.237867
     10 O2          7.1410    4.0880    1.0020 o         1 MOL     -0.447908
     11 C5          8.2390    6.4930   -1.3570 c3        1 MOL     -0.396282
     12 C6          9.6950    6.0890   -1.8100 c         1 MOL      0.823311
     13 O3          9.9420    5.0010   -2.3630 o         1 MOL     -0.731939
     14 O4         10.5810    6.9480   -1.7070 o         1 MOL     -0.731939
     15 H4          5.4860    5.2000   -2.0840 hn        1 MOL      0.349985
     16 H5          7.4710    4.7250   -2.1650 h1        1 MOL     -0.069719
     17 H6          8.2580    7.0920   -0.4400 hc        1 MOL      0.074770
     18 H7          7.7770    7.1240   -2.1220 hc        1 MOL      0.074770
     19 N2          8.8610    3.4760   -0.2510 n         1 MOL     -0.366725
     20 C7          9.6140    2.5490    0.5540 c3        1 MOL      0.395618
     21 C8          8.7210    1.3760    1.0770 c         1 MOL      0.401576
     22 O5          8.7620    0.9720    2.2090 o         1 MOL     -0.511378
     23 C9         10.4730    3.2570    1.6430 c3        1 MOL     -0.316138
     24 C10        11.3340    4.3870    1.0460 c3        1 MOL      0.279793
     25 C11        12.0350    5.1670    2.1420 c3        1 MOL     -0.223333
     26 C12        12.9860    6.2300    1.5530 c3        1 MOL      0.087293
     27 N3         12.2050    7.2370    0.7860 n4        1 MOL     -0.395826
     28 H8          9.2840    3.6290   -1.1610 hn        1 MOL      0.212758
     29 H9         10.3490    2.0740   -0.0970 h1        1 MOL     -0.020756
     30 H10        11.1850    2.4830    1.9550 hc        1 MOL      0.072548
     31 H11         9.8880    3.5670    2.5020 hc        1 MOL      0.072548
     32 H12        10.7470    5.0840    0.4410 hc        1 MOL     -0.040216
     33 H13        12.0700    3.9070    0.4090 hc        1 MOL     -0.040216
     34 H14        12.6850    4.4780    2.6700 hc        1 MOL      0.083331
     35 H15        11.3040    5.6820    2.7620 hc        1 MOL      0.083331
     36 H16        13.5560    5.7000    0.7900 hx        1 MOL      0.066350
     37 H17        13.5950    6.6210    2.3680 hx        1 MOL      0.066350
     38 H18        11.5700    7.8250    1.3120 hn        1 MOL      0.317835
     39 H19        12.8540    7.8000    0.2610 hn        1 MOL      0.317835
     40 H20        11.5770    6.8010    0.1220 hn        1 MOL      0.317835
     41 N4          7.8940    0.8100    0.1860 n         1 MOL     -0.555403
     42 C13         7.1930   -0.5060    0.4870 c3        1 MOL      0.359389
     43 C14         6.9240   -1.1890   -0.9150 c         1 MOL      0.361038
     44 O6          6.5690   -0.4970   -1.8170 o         1 MOL     -0.529642
     45 C15         5.8410   -0.2470    1.2190 c3        1 MOL     -0.087787
     46 C16         4.9610   -1.4480    1.4680 c         1 MOL      0.846053
     47 O7          5.3750   -2.6260    1.3220 o         1 MOL     -0.811807
     48 O8          3.7950   -1.2720    1.8500 o         1 MOL     -0.811807
     49 H21         7.9190    1.1580   -0.7680 hn        1 MOL      0.255261
     50 H22         7.8150   -1.1560    1.1060 h1        1 MOL      0.008029
     51 H23         5.1600    0.3290    0.5940 hc        1 MOL      0.038336
     52 H24         6.0500    0.2630    2.1510 hc        1 MOL      0.038336
     53 N5          7.0930   -2.4730   -1.1410 n         1 MOL     -0.153852
     54 C17         7.7480   -3.5290   -0.4420 c3        1 MOL     -0.229007
     55 C18         7.0140   -4.9310   -0.5680 c         1 MOL      0.581345
     56 O9          7.5730   -5.9660   -0.9900 o         1 MOL     -0.575655
     57 H25         6.9700   -2.7140   -2.1190 hn        1 MOL      0.235928
     58 H26         7.9420   -3.2980    0.6020 h1        1 MOL      0.089905
     59 H27         8.7640   -3.6250   -0.8450 h1        1 MOL      0.089905
     60 N6          5.7140   -4.8320   -0.4000 n         1 MOL     -0.053486
     61 C19         4.6490   -5.7890   -0.7050 c3        1 MOL     -0.316065
     62 C20         3.2380   -5.1320   -0.6090 c         1 MOL      0.459944
     63 O10         3.1570   -4.0450   -0.0530 o         1 MOL     -0.525401
     64 C21         4.6950   -7.0860    0.1640 c3        1 MOL      0.147867
     65 C22         4.6090   -6.9720    1.6550 c         1 MOL      0.605379
     66 O11         4.4610   -5.9010    2.2690 o         1 MOL     -0.681819
     67 O12         4.8490   -8.0630    2.2060 o         1 MOL     -0.681819
     68 H28         5.4500   -3.9380   -0.0120 hn        1 MOL      0.016759
     69 H29         4.8140   -6.1510   -1.7240 h1        1 MOL      0.102200
     70 H30         5.6330   -7.5990   -0.0560 hc        1 MOL      0.001399
     71 H31         3.9160   -7.7780   -0.1580 hc        1 MOL      0.001399
     72 N7          2.1990   -5.7840   -0.9960 n         1 MOL     -0.391199
     73 C23         0.8070   -5.3240   -0.8130 c3        1 MOL     -0.004774
     74 C24         0.3880   -4.0090   -1.4450 c         1 MOL      0.424824
     75 O13        -0.7790   -3.7320   -1.6220 o         1 MOL     -0.493545
     76 H32         2.2630   -6.7510   -1.2970 hn        1 MOL      0.333907
     77 H33         0.5290   -5.2570    0.2390 h1        1 MOL      0.062904
     78 H34         0.1690   -6.1270   -1.2000 h1        1 MOL      0.062904
     79 N8          1.3380   -3.2720   -2.0290 n         1 MOL     -0.250569
     80 C25         1.1060   -2.0610   -2.8990 c3        1 MOL     -0.161804
     81 C26         0.4550   -0.9840   -1.9970 c         1 MOL      0.307978
     82 O14         0.6550   -0.9280   -0.7820 o         1 MOL     -0.415068
     83 C27         2.3720   -1.5420   -3.4630 c3        1 MOL      0.446541
     84 C28         3.4450   -1.3780   -2.4020 c3        1 MOL     -0.387861
     85 O15         2.7690   -2.4930   -4.3920 oh        1 MOL     -0.614931
     86 H35         2.2850   -3.5540   -1.7920 hn        1 MOL      0.202332
     87 H36         0.4200   -2.1870   -3.7280 h1        1 MOL      0.108441
     88 H37         2.1130   -0.6340   -4.0030 h1        1 MOL     -0.037708
     89 H38         1.9880   -2.8460   -4.8280 ho        1 MOL      0.372836
     90 H39         3.7830   -2.3740   -2.1020 hc        1 MOL      0.136108
     91 H40         4.4120   -1.0180   -2.7220 hc        1 MOL      0.136108
     92 H41         3.1440   -0.7750   -1.5500 hc        1 MOL      0.136108
     93 N9         -0.3150   -0.0420   -2.5320 n         1 MOL     -0.017259
     94 C29        -1.0090    1.0250   -1.8180 c3        1 MOL     -0.578868
     95 C30        -2.2150    0.6130   -1.0250 c         1 MOL      0.636161
     96 O16        -2.4260    1.1050    0.0370 o         1 MOL     -0.505771
     97 C31        -1.2190    2.2670   -2.7320 c3        1 MOL      0.315175
     98 C32        -2.3020    2.1230   -3.8230 c3        1 MOL      0.061162
     99 C33         0.1530    2.6890   -3.2100 c3        1 MOL     -0.263529
    100 C34        -2.5620    3.5220   -4.3540 c3        1 MOL     -0.327604
    101 H42        -0.5740   -0.0600   -3.5120 hn        1 MOL      0.178700
    102 H43        -0.3280    1.4720   -1.0940 h1        1 MOL      0.214180
    103 H44        -1.5780    3.0550   -2.0660 hc        1 MOL      0.035850
    104 H45        -3.2570    1.7700   -3.4410 hc        1 MOL      0.016137
    105 H46        -1.9590    1.5250   -4.6760 hc        1 MOL      0.016137
    106 H47         0.4600    1.9480   -3.9530 hc        1 MOL      0.060302
    107 H48         0.1000    3.5720   -3.8490 hc        1 MOL      0.060302
    108 H49         0.9130    2.7660   -2.4340 hc        1 MOL      0.060302
    109 H50        -1.7720    3.9430   -4.9630 hc        1 MOL      0.080122
    110 H51        -3.3930    3.4480   -5.0560 hc        1 MOL      0.080122
    111 H52        -2.7270    4.1670   -3.4900 hc        1 MOL      0.080122
    112 N10        -3.0070   -0.3900   -1.5160 n         1 MOL     -0.467936
    113 C35        -4.0630   -1.2000   -0.9730 c3        1 MOL      0.065749
    114 C36        -5.1350   -1.5560   -1.9450 c         1 MOL      0.502146
    115 O17        -4.8190   -2.2550   -2.9590 o         1 MOL     -0.522909
    116 C37        -3.5770   -2.5580   -0.3840 c3        1 MOL      0.597505
    117 C38        -2.3590   -2.5750    0.5430 c3        1 MOL     -0.323973
    118 O18        -4.4750   -3.3710    0.3120 oh        1 MOL     -0.752719
    119 H53        -2.6830   -0.7830   -2.3930 hn        1 MOL      0.202201
    120 H54        -4.5400   -0.6720   -0.1420 h1        1 MOL      0.045370
    121 H55        -3.3260   -3.1130   -1.2900 h1        1 MOL     -0.056367
    122 H56        -3.9520   -4.0550    0.7460 ho        1 MOL      0.444437
    123 H57        -1.4750   -2.0780    0.1570 hc        1 MOL      0.043697
    124 H58        -2.6230   -2.1720    1.5240 hc        1 MOL      0.043697
    125 H59        -2.1230   -3.6230    0.7340 hc        1 MOL      0.043697
    126 N11        -6.4060   -1.2820   -1.5810 n         1 MOL     -0.467606
    127 C39        -7.5640   -1.5900   -2.3710 c3        1 MOL     -0.019101
    128 C40        -8.7930   -0.7430   -2.0490 c         1 MOL      0.645454
    129 O19        -9.2270   -0.0880   -2.9360 o         1 MOL     -0.556288
    130 C41        -7.7990   -3.0710   -2.1710 c3        1 MOL      0.261931
    131 C42        -8.8030   -3.5850   -3.2110 c3        1 MOL     -0.415727
    132 O20        -8.3070   -3.3620   -0.8680 oh        1 MOL     -0.631670
    133 H60        -6.6060   -0.9130   -0.6690 hn        1 MOL      0.289666
    134 H61        -7.2810   -1.3780   -3.4070 h1        1 MOL      0.116660
    135 H62        -6.8640   -3.6150   -2.2970 h1        1 MOL      0.065130
    136 H63        -8.0060   -4.2550   -0.6870 ho        1 MOL      0.414592
    137 H64        -9.7590   -3.1040   -2.9930 hc        1 MOL      0.104660
    138 H65        -8.4750   -3.3690   -4.2260 hc        1 MOL      0.104660
    139 H66        -8.9280   -4.6560   -3.0390 hc        1 MOL      0.104660
    140 N12        -9.1400   -0.4480   -0.7690 n         1 MOL     -0.412873
    141 C43       -10.2190    0.4480   -0.3500 c3        1 MOL      0.004175
    142 C44        -9.9090    1.1910    0.9570 c         1 MOL      0.385206
    143 O21        -9.1940    0.5990    1.7630 o         1 MOL     -0.483415
    144 C45       -11.4910   -0.4450   -0.2110 c3        1 MOL     -0.270861
    145 C46       -12.7500    0.3370    0.3540 c3        1 MOL      0.202887
    146 C47       -13.8580   -0.6510    0.7550 c3        1 MOL      0.049625
    147 C48       -15.0760    0.0940    1.3040 c3        1 MOL     -0.072764
    148 N13       -15.9860    0.6550    0.2910 n4        1 MOL     -0.348320
    149 H67        -8.6070   -0.8470   -0.0170 hn        1 MOL      0.275061
    150 H68       -10.3100    1.2100   -1.1260 h1        1 MOL      0.092322
    151 H69       -11.2770   -1.3050    0.4320 hc        1 MOL      0.105506
    152 H70       -11.8290   -0.8890   -1.1400 hc        1 MOL      0.105506
    153 H71       -13.0460    1.1600   -0.2960 hc        1 MOL     -0.078593
    154 H72       -12.4920    0.9860    1.1960 hc        1 MOL     -0.078593
    155 H73       -13.4780   -1.4290    1.4070 hc        1 MOL      0.015171
    156 H74       -14.1690   -1.1700   -0.1570 hc        1 MOL      0.015171
    157 H75       -14.7100    0.8830    1.9620 hx        1 MOL      0.118585
    158 H76       -15.6740   -0.5540    1.9460 hx        1 MOL      0.118585
    159 H77       -16.4690   -0.0020   -0.3190 hn        1 MOL      0.319997
    160 H78       -16.7620    1.1780    0.6690 hn        1 MOL      0.319997
    161 H79       -15.4440    1.2790   -0.2800 hn        1 MOL      0.319997
    162 N14       -10.3130    2.4120    1.1030 n         1 MOL     -0.182862
    163 C49       -10.3330    3.1610    2.4140 c3        1 MOL      0.114171
    164 C50        -8.8690    3.5880    2.7950 c         1 MOL      0.377817
    165 O22        -8.3770    3.0710    3.7940 o         1 MOL     -0.506075
    166 C51       -11.2720    4.3780    2.2600 c3        1 MOL      0.116596
    167 C52       -12.7320    3.9440    2.2440 c3        1 MOL     -0.463664
    168 C53       -13.5730    5.2510    1.9190 c         1 MOL      0.738248
    169 O23       -13.4140    6.2350    2.6300 o         1 MOL     -0.705159
    170 O24       -14.3540    5.2010    0.9660 o         1 MOL     -0.705159
    171 H80       -10.7990    2.8190    0.3130 hn        1 MOL      0.210625
    172 H81       -10.6680    2.5700    3.2680 h1        1 MOL      0.042195
    173 H82       -11.0350    5.0320    1.4130 hc        1 MOL      0.037863
    174 H83       -11.1210    4.9790    3.1530 hc        1 MOL      0.037863
    175 H84       -13.0390    3.6180    3.2260 hc        1 MOL      0.092723
    176 H85       -12.8350    3.0860    1.5720 hc        1 MOL      0.092723
    177 N15        -8.0670    4.3990    2.0230 n         1 MOL     -0.400849
    178 C54        -8.3310    5.0910    0.7690 c3        1 MOL      0.010047
    179 H86        -7.5020    5.7630    0.5440 h1        1 MOL      0.034034
    180 H87        -8.4340    4.3620   -0.0350 h1        1 MOL      0.034034
    181 H88        -9.2520    5.6670    0.8570 h1        1 MOL      0.034034
    182 H89        -7.1180    4.4570    2.3720 hn        1 MOL      0.301015
    183 Ca1         3.2350   -3.5920    2.6650 Ca        1 MOL      1.752686
    184 O25         5.2780   -2.7630    4.3860 oh        1 MOL     -0.815930
    185 H90         5.8390   -2.0440    4.6740 ho        1 MOL      0.405175
    186 H91         5.0490   -3.2220    5.1950 ho        1 MOL      0.405175
    187 O26         2.3080   -1.9370    4.8220 oh        1 MOL     -0.815930
    188 H92         2.0400   -1.8180    5.7330 ho        1 MOL      0.405175
    189 H93         2.1830   -1.0730    4.4150 ho        1 MOL      0.405175
    190 O27         0.9490   -2.3420    1.6670 oh        1 MOL     -0.815930
    191 H94         0.7520   -1.9830    0.8010 ho        1 MOL      0.405175
    192 H95         0.1110   -2.3310    2.1310 ho        1 MOL      0.405175
    193 O28         0.7640   -5.2010    3.0230 oh        1 MOL     -0.815930
    194 H96         0.0980   -5.8090    2.6990 ho        1 MOL      0.405175
    195 H97         0.3120   -4.6750    3.6780 ho        1 MOL      0.405175
    196 O29         3.3380   -5.0100    4.8250 oh        1 MOL     -0.815930
    197 H98         3.8770   -5.6910    4.4240 ho        1 MOL      0.405175
    198 H99         3.2110   -5.3130    5.7270 ho        1 MOL      0.405175
@<TRIPOS>BOND
     1    1    2 1   
     2    1    4 1   
     3    1    5 1   
     4    1    6 1   
     5    2    3 2   
     6    2    7 1   
     7    7    8 1   
     8    7   15 1   
     9    8    9 1   
    10    8   11 1   
    11    8   16 1   
    12    9   10 2   
    13    9   19 1   
    14   11   12 1   
    15   11   17 1   
    16   11   18 1   
    17   12   13 1   
    18   12   14 1   
    19   19   20 1   
    20   19   28 1   
    21   20   21 1   
    22   20   23 1   
    23   20   29 1   
    24   21   22 2   
    25   21   41 1   
    26   23   24 1   
    27   23   30 1   
    28   23   31 1   
    29   24   25 1   
    30   24   32 1   
    31   24   33 1   
    32   25   26 1   
    33   25   34 1   
    34   25   35 1   
    35   26   27 1   
    36   26   36 1   
    37   26   37 1   
    38   27   38 1   
    39   27   39 1   
    40   27   40 1   
    41   41   42 1   
    42   41   49 1   
    43   42   43 1   
    44   42   45 1   
    45   42   50 1   
    46   43   44 2   
    47   43   53 1   
    48   45   46 1   
    49   45   51 1   
    50   45   52 1   
    51   46   47 1   
    52   46   48 1   
    53   53   54 1   
    54   53   57 1   
    55   54   55 1   
    56   54   58 1   
    57   54   59 1   
    58   55   56 2   
    59   55   60 1   
    60   60   61 1   
    61   60   68 1   
    62   61   62 1   
    63   61   64 1   
    64   61   69 1   
    65   62   63 2   
    66   62   72 1   
    67   64   65 1   
    68   64   70 1   
    69   64   71 1   
    70   65   66 1   
    71   65   67 1   
    72   72   73 1   
    73   72   76 1   
    74   73   74 1   
    75   73   77 1   
    76   73   78 1   
    77   74   75 2   
    78   74   79 1   
    79   79   80 1   
    80   79   86 1   
    81   80   81 1   
    82   80   83 1   
    83   80   87 1   
    84   81   82 2   
    85   81   93 1   
    86   83   84 1   
    87   83   85 1   
    88   83   88 1   
    89   84   90 1   
    90   84   91 1   
    91   84   92 1   
    92   85   89 1   
    93   93   94 1   
    94   93  101 1   
    95   94   95 1   
    96   94   97 1   
    97   94  102 1   
    98   95   96 2   
    99   95  112 1   
   100   97   98 1   
   101   97   99 1   
   102   97  103 1   
   103   98  100 1   
   104   98  104 1   
   105   98  105 1   
   106   99  106 1   
   107   99  107 1   
   108   99  108 1   
   109  100  109 1   
   110  100  110 1   
   111  100  111 1   
   112  112  113 1   
   113  112  119 1   
   114  113  114 1   
   115  113  116 1   
   116  113  120 1   
   117  114  115 2   
   118  114  126 1   
   119  116  117 1   
   120  116  118 1   
   121  116  121 1   
   122  117  123 1   
   123  117  124 1   
   124  117  125 1   
   125  118  122 1   
   126  126  127 1   
   127  126  133 1   
   128  127  128 1   
   129  127  130 1   
   130  127  134 1   
   131  128  129 2   
   132  128  140 1   
   133  130  131 1   
   134  130  132 1   
   135  130  135 1   
   136  131  137 1   
   137  131  138 1   
   138  131  139 1   
   139  132  136 1   
   140  140  141 1   
   141  140  149 1   
   142  141  142 1   
   143  141  144 1   
   144  141  150 1   
   145  142  143 2   
   146  142  162 1   
   147  144  145 1   
   148  144  151 1   
   149  144  152 1   
   150  145  146 1   
   151  145  153 1   
   152  145  154 1   
   153  146  147 1   
   154  146  155 1   
   155  146  156 1   
   156  147  148 1   
   157  147  157 1   
   158  147  158 1   
   159  148  159 1   
   160  148  160 1   
   161  148  161 1   
   162  162  163 1   
   163  162  171 1   
   164  163  164 1   
   165  163  166 1   
   166  163  172 1   
   167  164  165 2   
   168  164  177 1   
   169  166  167 1   
   170  166  173 1   
   171  166  174 1   
   172  167  168 1   
   173  167  175 1   
   174  167  176 1   
   175  168  169 1   
   176  168  170 1   
   177  177  178 1   
   178  177  182 1   
   179  178  179 1   
   180  178  180 1   
   181  178  181 1   
   182  184  185 1   
   183  184  186 1   
   184  187  188 1   
   185  187  189 1   
   186  190  191 1   
   187  190  192 1   
   188  193  194 1   
   189  193  195 1   
   190  196  197 1   
   191  196  198 1   
@<TRIPOS>SUBSTRUCTURE
     1 MOL         1 TEMP              0 ****  ****    0 ROOT
