@<TRIPOS>MOLECULE
MOL
  178   175     1     0     0
SMALL
resp


@<TRIPOS>ATOM
      1 C1          3.0180   -1.8050    4.9990 c3        1 MOL     -0.369634
      2 C2          3.8590   -0.8500    4.0250 c         1 MOL      0.705392
      3 O1          3.4310    0.3090    3.7280 o         1 MOL     -0.576772
      4 H1          2.8750   -2.7750    4.5220 hc        1 MOL      0.092481
      5 H2          3.5600   -1.9380    5.9350 hc        1 MOL      0.092481
      6 H3          2.0470   -1.3540    5.2020 hc        1 MOL      0.092481
      7 N1          5.0770   -1.2650    3.7870 n         1 MOL     -0.682449
      8 C3          6.2470   -0.4280    3.3220 c3        1 MOL      0.242200
      9 C4          7.0980   -1.1630    2.3050 c         1 MOL      0.398772
     10 O2          7.5060   -0.4560    1.3330 o         1 MOL     -0.463057
     11 C5          7.1100   -0.2450    4.6110 c3        1 MOL     -0.240332
     12 C6          8.2470    0.8030    4.6000 c         1 MOL      0.690100
     13 O3          8.1330    1.9420    5.0420 o         1 MOL     -0.705906
     14 O4          9.3720    0.3250    4.2100 o         1 MOL     -0.705906
     15 H4          5.1860   -2.1390    4.2650 hn        1 MOL      0.306409
     16 H5          5.9690    0.4870    2.8050 h1        1 MOL      0.097194
     17 H6          7.3380   -1.2290    5.0200 hc        1 MOL      0.036468
     18 H7          6.3780    0.1100    5.3340 hc        1 MOL      0.036468
     19 N2          7.3590   -2.4440    2.4880 n         1 MOL     -0.466771
     20 C7          7.8520   -3.3140    1.4550 c3        1 MOL      0.284655
     21 C8          7.3080   -3.0030    0.0170 c         1 MOL      0.404206
     22 O5          8.0120   -2.7710   -0.9650 o         1 MOL     -0.488653
     23 C9          9.4000   -3.3830    1.5340 c3        1 MOL     -0.488900
     24 H8          7.0670   -2.8840    3.3480 hn        1 MOL      0.299337
     25 H9          7.3860   -4.2780    1.6650 h1        1 MOL     -0.007501
     26 H10         9.8100   -2.4080    1.3150 hc        1 MOL      0.136220
     27 H11         9.7500   -3.6030    2.5460 hc        1 MOL      0.136220
     28 H12         9.7990   -4.1320    0.8500 hc        1 MOL      0.136220
     29 N3          5.9690   -3.1120   -0.1210 n         1 MOL     -0.429501
     30 C10         5.1900   -2.8040   -1.3870 c3        1 MOL      0.157679
     31 C11         5.4100   -1.4340   -2.0420 c         1 MOL      0.513181
     32 O6          5.5050   -1.2990   -3.3020 o         1 MOL     -0.510921
     33 C12         5.2260   -3.9510   -2.3990 c3        1 MOL     -0.137460
     34 C13         3.8890   -4.1030   -3.1990 c         1 MOL      0.759763
     35 O7          3.9850   -4.2450   -4.4450 o         1 MOL     -0.746754
     36 O8          2.8530   -3.9240   -2.6030 o         1 MOL     -0.746754
     37 H13         5.4160   -3.3780    0.6820 hn        1 MOL      0.253390
     38 H14         4.1770   -2.6450   -1.0210 h1        1 MOL      0.026527
     39 H15         5.3820   -4.9030   -1.8920 hc        1 MOL      0.025412
     40 H16         6.0210   -3.8280   -3.1430 hc        1 MOL      0.025412
     41 N4          5.6210   -0.4390   -1.1590 n         1 MOL     -0.264343
     42 C14         6.0790    0.9090   -1.4970 c3        1 MOL      0.028909
     43 C15         5.0110    1.8470   -2.0800 c         1 MOL      0.610675
     44 O9          5.3960    2.5660   -2.9700 o         1 MOL     -0.583252
     45 H17         5.6100   -0.6400   -0.1690 hn        1 MOL      0.201455
     46 H18         6.8230    0.7490   -2.2800 h1        1 MOL      0.041421
     47 H19         6.4760    1.3970   -0.6160 h1        1 MOL      0.041421
     48 N5          3.7250    1.7300   -1.7530 n         1 MOL     -0.327620
     49 C16         2.6580    2.3720   -2.4880 c3        1 MOL     -0.227589
     50 C17         2.3040    3.8670   -2.1280 c         1 MOL      0.641751
     51 O10         2.3600    4.2860   -0.9530 o         1 MOL     -0.537465
     52 C18         1.4350    1.5520   -2.4520 c3        1 MOL     -0.097543
     53 C19         1.5680    0.1690   -3.2140 c         1 MOL      0.532829
     54 N6          1.9800    0.2210   -4.4520 n         1 MOL     -0.657962
     55 O11         1.5160   -0.8830   -2.6340 o         1 MOL     -0.542468
     56 H20         3.4520    1.1600   -0.9610 hn        1 MOL      0.238673
     57 H21         3.0050    2.4610   -3.5220 h1        1 MOL      0.098049
     58 H22         0.5710    1.9880   -2.9590 hc        1 MOL      0.095615
     59 H23         1.1220    1.3930   -1.4200 hc        1 MOL      0.095615
     60 H24         2.0500    1.0910   -4.9560 hn        1 MOL      0.312513
     61 H25         2.1980   -0.6680   -4.8850 hn        1 MOL      0.312513
     62 N7          1.9820    4.6460   -3.1710 n         1 MOL     -0.410713
     63 C20         1.6520    6.0530   -2.9210 c3        1 MOL     -0.184418
     64 C21         0.2130    6.3340   -2.4280 c         1 MOL      0.527036
     65 O12        -0.7470    5.9460   -3.0760 o         1 MOL     -0.517166
     66 H26         2.0850    4.3580   -4.1380 hn        1 MOL      0.302137
     67 H27         1.7510    6.6590   -3.8100 h1        1 MOL      0.105249
     68 H28         2.3720    6.4250   -2.1970 h1        1 MOL      0.105249
     69 N8          0.1120    7.1240   -1.4310 n         1 MOL     -0.272761
     70 C22        -1.0750    7.6760   -0.7970 c3        1 MOL     -0.391033
     71 C23        -1.8820    6.6440    0.0300 c         1 MOL      0.555564
     72 O13        -3.0120    6.8260    0.4650 o         1 MOL     -0.583180
     73 C24        -0.7890    8.8760    0.0520 c3        1 MOL      0.547333
     74 C25        -0.1130    8.7400    1.3910 c3        1 MOL     -0.265650
     75 O14         0.0520    9.7160   -0.8330 oh        1 MOL     -0.652349
     76 H29         1.0100    7.4150   -1.0660 hn        1 MOL      0.249338
     77 H30        -1.7330    8.0480   -1.5750 h1        1 MOL      0.173547
     78 H31        -1.7590    9.3370    0.2480 h1        1 MOL      0.015210
     79 H32         0.8120    9.1660   -1.0310 ho        1 MOL      0.351609
     80 H33        -0.9260    8.5180    2.0910 hc        1 MOL      0.057170
     81 H34         0.5410    7.8640    1.4020 hc        1 MOL      0.057170
     82 H35         0.2190    9.7480    1.6490 hc        1 MOL      0.057170
     83 N9         -1.2400    5.5140    0.2380 n         1 MOL     -0.073045
     84 C26        -1.7820    4.3520    0.9700 c3        1 MOL     -0.073493
     85 C27        -1.7890    3.1140    0.0760 c         1 MOL      0.439067
     86 O15        -1.2440    3.1010   -1.0250 o         1 MOL     -0.452545
     87 C28        -1.0240    4.0280    2.2720 c3        1 MOL      0.146699
     88 C29         0.4740    3.6400    2.0740 c3        1 MOL     -0.190649
     89 C30        -1.1330    5.1060    3.3330 c3        1 MOL     -0.463513
     90 C31         0.9430    2.7150    3.1620 c3        1 MOL     -0.054112
     91 H36        -0.3990    5.3300   -0.2990 hn        1 MOL      0.029194
     92 H37        -2.8300    4.5960    1.1520 h1        1 MOL      0.082372
     93 H38        -1.5310    3.1830    2.7360 hc        1 MOL      0.021774
     94 H39         1.1670    4.4810    2.1420 hc        1 MOL      0.126624
     95 H40         0.6170    3.1100    1.1350 hc        1 MOL      0.126624
     96 H41        -0.4650    5.9480    3.1400 hc        1 MOL      0.112428
     97 H42        -2.1920    5.3760    3.3590 hc        1 MOL      0.112428
     98 H43        -0.8430    4.7470    4.3200 hc        1 MOL      0.112428
     99 H44         0.4210    3.0300    4.0680 hc        1 MOL      0.023245
    100 H45         0.7350    1.6680    2.9330 hc        1 MOL      0.023245
    101 H46         2.0210    2.7870    3.2490 hc        1 MOL      0.023245
    102 N10        -2.3440    2.0330    0.5780 n         1 MOL     -0.481463
    103 C32        -2.3510    0.6980   -0.0600 c3        1 MOL      0.007310
    104 C33        -3.6820    0.0160    0.2190 c         1 MOL      0.676992
    105 O16        -3.7440   -1.1880    0.3380 o         1 MOL     -0.543386
    106 C34        -1.1320   -0.0860    0.4410 c3        1 MOL      0.004318
    107 C35        -0.7060   -1.1960   -0.4680 c         1 MOL      0.504574
    108 O17         0.3290   -1.8390   -0.2090 o         1 MOL     -0.682925
    109 O18        -1.2800   -1.3900   -1.5630 o         1 MOL     -0.682925
    110 H47        -2.9300    2.1840    1.3910 hn        1 MOL      0.257029
    111 H48        -2.1470    0.7930   -1.1290 h1        1 MOL      0.063520
    112 H49        -1.3720   -0.5760    1.3810 hc        1 MOL      0.046521
    113 H50        -0.3150    0.6260    0.5530 hc        1 MOL      0.046521
    114 N11        -4.7890    0.7210    0.1510 n         1 MOL     -0.587805
    115 C36        -6.1900    0.2590   -0.0190 c3        1 MOL      0.236849
    116 C37        -6.4590   -0.9460    0.9300 c         1 MOL      0.344281
    117 O19        -6.1420   -0.8690    2.1680 o         1 MOL     -0.492381
    118 C38        -7.1810    1.3620    0.2180 c3        1 MOL     -0.271327
    119 C39        -8.6140    0.8730    0.0120 ca        1 MOL      0.054888
    120 C40        -9.1860    0.8110   -1.2810 ca        1 MOL     -0.165916
    121 C41        -9.3360    0.3480    1.1220 ca        1 MOL     -0.165916
    122 C42       -10.4400    0.2380   -1.4600 ca        1 MOL     -0.064052
    123 C43       -10.5780   -0.3200    0.8960 ca        1 MOL     -0.064052
    124 C44       -11.0970   -0.4390   -0.4180 ca        1 MOL     -0.183648
    125 H51        -4.6640    1.7040   -0.0570 hn        1 MOL      0.295597
    126 H52        -6.2990   -0.1180   -1.0350 h1        1 MOL      0.019988
    127 H53        -6.9440    2.2180   -0.4140 hc        1 MOL      0.117442
    128 H54        -7.0890    1.7630    1.2300 hc        1 MOL      0.117442
    129 H55        -8.6320    1.2120   -2.1190 ha        1 MOL      0.130575
    130 H56        -8.9040    0.3060    2.1140 ha        1 MOL      0.130575
    131 H57       -10.8450    0.1910   -2.4670 ha        1 MOL      0.100274
    132 H58       -11.1970   -0.6650    1.7180 ha        1 MOL      0.100274
    133 H59       -12.0650   -0.8900   -0.5140 ha        1 MOL      0.127073
    134 N12        -6.8270   -2.1550    0.3710 n         1 MOL     -0.064677
    135 C45        -7.1780   -3.3320    1.1880 c3        1 MOL      0.006091
    136 C46        -5.9330   -3.8710    1.9530 c         1 MOL      0.273309
    137 O20        -6.1740   -4.3890    3.0300 o         1 MOL     -0.520948
    138 C47        -7.8350   -4.2530    0.1470 c3        1 MOL      0.081451
    139 C48        -8.3560   -3.4230   -1.0230 c3        1 MOL     -0.066272
    140 C49        -7.3620   -2.2800   -1.0220 c3        1 MOL      0.083321
    141 H60        -7.9590   -3.0930    1.9140 h1        1 MOL      0.079412
    142 H61        -7.1810   -5.0610   -0.1900 hc        1 MOL     -0.005748
    143 H62        -8.7260   -4.7480    0.5380 hc        1 MOL     -0.005748
    144 H63        -8.4170   -3.9540   -1.9750 hc        1 MOL      0.019624
    145 H64        -9.3700   -3.1510   -0.7290 hc        1 MOL      0.019624
    146 H65        -6.6080   -2.5410   -1.7700 h1        1 MOL      0.012792
    147 H66        -7.9300   -1.3810   -1.2730 h1        1 MOL      0.012792
    148 N13        -4.7310   -3.6430    1.5580 n         1 MOL     -0.048580
    149 C50        -3.5470   -4.0100    2.3120 c3        1 MOL     -0.137480
    150 C51        -3.2580   -3.1310    3.5430 c         1 MOL      0.335822
    151 O21        -2.6240   -3.5970    4.5290 o         1 MOL     -0.537465
    152 C52        -2.3090   -3.9680    1.4850 c3        1 MOL      0.120656
    153 C53        -2.2850   -5.0630    0.4270 c3        1 MOL     -0.069082
    154 C54        -1.3990   -4.7390   -0.6790 c         1 MOL      0.763200
    155 O22        -0.1320   -4.7970   -0.4650 o         1 MOL     -0.793229
    156 O23        -1.7650   -4.4660   -1.8320 o         1 MOL     -0.793229
    157 H67        -4.5310   -3.1380    0.7040 hn        1 MOL      0.150529
    158 H68        -3.6600   -5.0390    2.6680 h1        1 MOL      0.111555
    159 H69        -1.4190   -4.0650    2.1110 hc        1 MOL      0.044457
    160 H70        -2.1290   -2.9990    1.0280 hc        1 MOL      0.044457
    161 H71        -3.2530   -5.3010   -0.0130 hc        1 MOL     -0.025309
    162 H72        -1.9270   -5.9370    0.9730 hc        1 MOL     -0.025309
    163 N14        -3.8690   -1.9260    3.5650 n         1 MOL      0.004190
    164 C55        -3.6810   -0.9090    4.6130 c3        1 MOL     -0.320698
    165 H73        -3.6590    0.0810    4.1580 h1        1 MOL      0.113053
    166 H74        -4.5050   -0.9620    5.3250 h1        1 MOL      0.113053
    167 H75        -2.7400   -1.0900    5.1320 h1        1 MOL      0.113053
    168 H76        -4.4160   -1.7520    2.7280 hn        1 MOL      0.120857
    169 Ca1         0.3890   -3.3220   -2.6880 Ca        1 MOL      1.760549
    170 O24        -1.2290   -2.3570   -4.4620 oh        1 MOL     -0.818294
    171 H77        -1.3710   -1.4470   -4.1950 ho        1 MOL      0.399240
    172 H78        -1.5880   -2.4080   -5.3490 ho        1 MOL      0.399240
    173 O25         1.6910   -2.7510   -4.9870 oh        1 MOL     -0.818294
    174 H79         1.7950   -2.4610   -5.8970 ho        1 MOL      0.399240
    175 H80         2.4320   -3.3380   -4.8340 ho        1 MOL      0.399240
    176 O26         0.4850   -5.6410   -4.1050 oh        1 MOL     -0.818294
    177 H81         0.2720   -6.4180   -3.5880 ho        1 MOL      0.399240
    178 H82         0.4760   -5.9330   -5.0180 ho        1 MOL      0.399240
@<TRIPOS>BOND
     1    1    2 1   
     2    1    4 1   
     3    1    5 1   
     4    1    6 1   
     5    2    3 2   
     6    2    7 1   
     7    7    8 1   
     8    7   15 1   
     9    8    9 1   
    10    8   11 1   
    11    8   16 1   
    12    9   10 2   
    13    9   19 1   
    14   11   12 1   
    15   11   17 1   
    16   11   18 1   
    17   12   13 1   
    18   12   14 1   
    19   19   20 1   
    20   19   24 1   
    21   20   21 1   
    22   20   23 1   
    23   20   25 1   
    24   21   22 2   
    25   21   29 1   
    26   23   26 1   
    27   23   27 1   
    28   23   28 1   
    29   29   30 1   
    30   29   37 1   
    31   30   31 1   
    32   30   33 1   
    33   30   38 1   
    34   31   32 2   
    35   31   41 1   
    36   33   34 1   
    37   33   39 1   
    38   33   40 1   
    39   34   35 1   
    40   34   36 1   
    41   41   42 1   
    42   41   45 1   
    43   42   43 1   
    44   42   46 1   
    45   42   47 1   
    46   43   44 2   
    47   43   48 1   
    48   48   49 1   
    49   48   56 1   
    50   49   50 1   
    51   49   52 1   
    52   49   57 1   
    53   50   51 2   
    54   50   62 1   
    55   52   53 1   
    56   52   58 1   
    57   52   59 1   
    58   53   54 1   
    59   53   55 2   
    60   54   60 1   
    61   54   61 1   
    62   62   63 1   
    63   62   66 1   
    64   63   64 1   
    65   63   67 1   
    66   63   68 1   
    67   64   65 2   
    68   64   69 1   
    69   69   70 1   
    70   69   76 1   
    71   70   71 1   
    72   70   73 1   
    73   70   77 1   
    74   71   72 2   
    75   71   83 1   
    76   73   74 1   
    77   73   75 1   
    78   73   78 1   
    79   74   80 1   
    80   74   81 1   
    81   74   82 1   
    82   75   79 1   
    83   83   84 1   
    84   83   91 1   
    85   84   85 1   
    86   84   87 1   
    87   84   92 1   
    88   85   86 2   
    89   85  102 1   
    90   87   88 1   
    91   87   89 1   
    92   87   93 1   
    93   88   90 1   
    94   88   94 1   
    95   88   95 1   
    96   89   96 1   
    97   89   97 1   
    98   89   98 1   
    99   90   99 1   
   100   90  100 1   
   101   90  101 1   
   102  102  103 1   
   103  102  110 1   
   104  103  104 1   
   105  103  106 1   
   106  103  111 1   
   107  104  105 2   
   108  104  114 1   
   109  106  107 1   
   110  106  112 1   
   111  106  113 1   
   112  107  108 1   
   113  107  109 1   
   114  114  115 1   
   115  114  125 1   
   116  115  116 1   
   117  115  118 1   
   118  115  126 1   
   119  116  117 2   
   120  116  134 1   
   121  118  119 1   
   122  118  127 1   
   123  118  128 1   
   124  119  120 ar  
   125  119  121 ar  
   126  120  122 ar  
   127  120  129 1   
   128  121  123 ar  
   129  121  130 1   
   130  122  124 ar  
   131  122  131 1   
   132  123  124 ar  
   133  123  132 1   
   134  124  133 1   
   135  134  135 1   
   136  134  140 1   
   137  135  136 1   
   138  135  138 1   
   139  135  141 1   
   140  136  137 2   
   141  136  148 1   
   142  138  139 1   
   143  138  142 1   
   144  138  143 1   
   145  139  140 1   
   146  139  144 1   
   147  139  145 1   
   148  140  146 1   
   149  140  147 1   
   150  148  149 1   
   151  148  157 1   
   152  149  150 1   
   153  149  152 1   
   154  149  158 1   
   155  150  151 2   
   156  150  163 1   
   157  152  153 1   
   158  152  159 1   
   159  152  160 1   
   160  153  154 1   
   161  153  161 1   
   162  153  162 1   
   163  154  155 1   
   164  154  156 1   
   165  163  164 1   
   166  163  168 1   
   167  164  165 1   
   168  164  166 1   
   169  164  167 1   
   170  170  171 1   
   171  170  172 1   
   172  173  174 1   
   173  173  175 1   
   174  176  177 1   
   175  176  178 1   
@<TRIPOS>SUBSTRUCTURE
     1 MOL         1 TEMP              0 ****  ****    0 ROOT
