@<TRIPOS>MOLECULE
MOL
  191   184     1     0     0
SMALL
resp


@<TRIPOS>ATOM
      1 C1         -6.0930   -0.3420    4.9470 c3        1 MOL     -0.361391
      2 C2         -6.6470   -0.3480    3.5050 c         1 MOL      0.705259
      3 O1         -5.9400   -0.0530    2.5530 o         1 MOL     -0.550421
      4 H1         -5.0580    0.0020    4.9380 hc        1 MOL      0.090717
      5 H2         -6.6920    0.3270    5.5650 hc        1 MOL      0.090717
      6 H3         -6.1350   -1.3510    5.3570 hc        1 MOL      0.090717
      7 N1         -7.8670   -0.8390    3.3350 n         1 MOL     -0.669745
      8 C3         -8.3920   -1.3940    2.0500 c3        1 MOL      0.140425
      9 C4         -8.3850   -0.3980    0.8450 c         1 MOL      0.483644
     10 O2         -8.4400   -0.7740   -0.2790 o         1 MOL     -0.516888
     11 C5         -7.7920   -2.7810    1.7150 c3        1 MOL     -0.112040
     12 C6         -7.9510   -3.8240    2.8080 c         1 MOL      0.702504
     13 O3         -8.5370   -3.5900    3.8920 o         1 MOL     -0.687474
     14 O4         -7.4930   -4.9540    2.5480 o         1 MOL     -0.687474
     15 H4         -8.3930   -0.9730    4.1810 hn        1 MOL      0.336888
     16 H5         -9.4610   -1.5710    2.2110 h1        1 MOL      0.061168
     17 H6         -6.7330   -2.6010    1.5240 hc        1 MOL      0.051395
     18 H7         -8.4570   -3.0460    0.8940 hc        1 MOL      0.051395
     19 N2         -8.2080    0.9310    1.0690 n         1 MOL     -0.483005
     20 C7         -8.0310    1.9610    0.0590 c3        1 MOL      0.260532
     21 C8         -6.5830    2.4600    0.1530 c         1 MOL      0.713081
     22 O5         -6.2700    3.5160    0.6950 o         1 MOL     -0.606247
     23 C9         -9.0520    3.1230    0.3440 c3        1 MOL     -0.158692
     24 C10        -9.3240    4.0190   -0.9190 c3        1 MOL      0.051650
     25 C11       -10.1810    3.4540   -2.0300 c3        1 MOL     -0.091251
     26 C12       -10.1850    4.4810   -3.1740 c3        1 MOL     -0.022580
     27 N3        -11.0140    5.6680   -2.9130 n4        1 MOL     -0.284654
     28 H8         -8.0060    1.1960    2.0190 hn        1 MOL      0.238895
     29 H9         -8.2090    1.5480   -0.9300 h1        1 MOL      0.002711
     30 H10        -8.7760    3.7610    1.1760 hc        1 MOL      0.043426
     31 H11        -9.9730    2.6170    0.6290 hc        1 MOL      0.043426
     32 H12        -8.3540    4.3110   -1.3330 hc        1 MOL     -0.001424
     33 H13        -9.8650    4.9190   -0.6450 hc        1 MOL     -0.001424
     34 H14       -11.1990    3.2250   -1.6900 hc        1 MOL      0.068008
     35 H15        -9.7690    2.5650   -2.5010 hc        1 MOL      0.068008
     36 H16       -10.3790    4.0380   -4.1510 hx        1 MOL      0.098733
     37 H17        -9.1570    4.8050   -3.3450 hx        1 MOL      0.098733
     38 H18       -11.9750    5.3740   -3.0400 hn        1 MOL      0.256695
     39 H19       -10.8170    6.0380   -1.9960 hn        1 MOL      0.256695
     40 H20       -10.8500    6.4530   -3.5410 hn        1 MOL      0.256695
     41 N4         -5.6650    1.6800   -0.4320 n         1 MOL     -0.659779
     42 C13        -4.2340    1.8680   -0.2950 c3        1 MOL     -0.132416
     43 C14        -3.7130    2.5800   -1.5390 c         1 MOL      0.614580
     44 O6         -4.0170    2.1560   -2.6240 o         1 MOL     -0.514900
     45 C15        -3.5140    0.5340   -0.0460 c3        1 MOL     -0.049985
     46 C16        -2.0360    0.8400    0.3080 c         1 MOL      0.968393
     47 O7         -1.1390    1.0130   -0.5280 o         1 MOL     -0.857482
     48 O8         -1.7060    0.8820    1.5240 o         1 MOL     -0.857482
     49 H21        -6.0170    0.8970   -0.9700 hn        1 MOL      0.353386
     50 H22        -3.9780    2.5150    0.5410 h1        1 MOL      0.111621
     51 H23        -3.4900   -0.1850   -0.8710 hc        1 MOL      0.101468
     52 H24        -4.0280    0.0850    0.8030 hc        1 MOL      0.101468
     53 N5         -2.9740    3.6820   -1.2960 n         1 MOL     -0.371594
     54 C17        -2.2550    4.4660   -2.3190 c3        1 MOL     -0.117461
     55 C18        -1.3560    3.7280   -3.3700 c         1 MOL      0.575185
     56 O9         -1.2550    4.1890   -4.4750 o         1 MOL     -0.532058
     57 H25        -2.8180    3.8370   -0.3060 hn        1 MOL      0.259196
     58 H26        -1.5700    5.0940   -1.7480 h1        1 MOL      0.090642
     59 H27        -2.9560    5.1430   -2.8030 h1        1 MOL      0.090642
     60 N6         -0.7510    2.5960   -2.9680 n         1 MOL     -0.350399
     61 C19         0.1580    1.7980   -3.8040 c3        1 MOL      0.024830
     62 C20        -0.1940    0.3380   -4.0290 c         1 MOL      0.369198
     63 O10         0.4590   -0.4060   -4.7720 o         1 MOL     -0.496928
     64 C21         1.5350    2.0140   -3.2260 c3        1 MOL     -0.346584
     65 C22         1.8800    1.2820   -1.9470 c         1 MOL      0.655465
     66 N7          2.1720    0.0380   -2.0210 n         1 MOL     -0.308214
     67 O11         1.9170    1.9040   -0.9160 o         1 MOL     -0.676807
     68 H28        -0.9280    2.2130   -2.0500 hn        1 MOL      0.261848
     69 H29         0.1850    2.2770   -4.7820 h1        1 MOL      0.140923
     70 H30         1.6890    3.0990   -3.2510 hc        1 MOL      0.114843
     71 H31         2.3310    1.6950   -3.9080 hc        1 MOL      0.114843
     72 H32         2.4220   -0.2030   -2.9730 hn        1 MOL      0.214786
     73 H33         2.5940   -0.3670   -1.2060 hn        1 MOL      0.214786
     74 N8         -1.2870   -0.0440   -3.3290 n         1 MOL     -0.067653
     75 C23        -1.9330   -1.4010   -3.3510 c3        1 MOL     -0.130811
     76 C24        -1.4150   -2.4890   -2.4140 c         1 MOL      0.482908
     77 O12        -1.2730   -3.7050   -2.7460 o         1 MOL     -0.543615
     78 H34        -1.7910    0.6620   -2.8070 hn        1 MOL      0.072749
     79 H35        -1.9830   -1.7960   -4.3640 h1        1 MOL      0.105775
     80 H36        -2.9770   -1.2430   -3.1120 h1        1 MOL      0.105775
     81 N9         -0.9820   -2.0110   -1.2220 n         1 MOL      0.000397
     82 C25        -0.5100   -2.8100   -0.1410 c3        1 MOL      0.109760
     83 C26         0.8080   -2.1620    0.3700 c         1 MOL      0.620685
     84 O13         1.0020   -0.9290    0.3520 o         1 MOL     -0.671063
     85 C27        -1.5690   -3.0370    0.8670 c3        1 MOL      0.037604
     86 C28        -2.7270   -3.8680    0.4410 ca        1 MOL      0.010868
     87 C29        -3.9240   -3.2770   -0.0230 ca        1 MOL     -0.162698
     88 C30        -2.5640   -5.2540    0.2810 ca        1 MOL     -0.162698
     89 C31        -4.9720   -4.0630   -0.5910 ca        1 MOL     -0.195724
     90 C32        -3.5750   -6.0270   -0.2380 ca        1 MOL     -0.195724
     91 C33        -4.7820   -5.4420   -0.7300 ca        1 MOL      0.349673
     92 O14        -5.7460   -6.2430   -1.3650 oh        1 MOL     -0.524561
     93 H37        -0.9970   -1.0030   -1.1320 hn        1 MOL     -0.247082
     94 H38        -0.1170   -3.7100   -0.6040 h1        1 MOL     -0.024096
     95 H39        -2.0090   -2.0960    1.1960 hc        1 MOL      0.007488
     96 H40        -1.2160   -3.4800    1.7870 hc        1 MOL      0.007488
     97 H41        -4.0190   -2.2010    0.0880 ha        1 MOL      0.102866
     98 H42        -1.6670   -5.6960    0.7120 ha        1 MOL      0.102866
     99 H43        -5.9480   -3.6450   -0.7870 ha        1 MOL      0.118455
    100 H44        -3.4060   -7.0850   -0.3450 ha        1 MOL      0.118455
    101 H45        -5.6560   -7.1900   -1.2240 ho        1 MOL      0.391546
    102 N10         1.5630   -2.9910    1.0960 n         1 MOL     -0.450478
    103 C34         2.9410   -2.6320    1.4060 c3        1 MOL      0.070546
    104 C35         3.7110   -2.5610    0.0530 c         1 MOL      0.148293
    105 O15         4.3540   -1.5420   -0.1910 o         1 MOL     -0.345430
    106 C36         3.5770   -3.6300    2.3270 c3        1 MOL      0.130380
    107 C37         2.8820   -3.6540    3.7200 c3        1 MOL      0.093396
    108 C38         4.9980   -3.2670    2.5790 c3        1 MOL     -0.462910
    109 C39         2.7730   -2.4040    4.4740 c3        1 MOL     -0.144350
    110 H46         1.3020   -3.9640    1.0670 hn        1 MOL      0.268556
    111 H47         3.0440   -1.6460    1.8490 h1        1 MOL      0.056983
    112 H48         3.5240   -4.6700    1.9980 hc        1 MOL     -0.025901
    113 H49         3.4440   -4.3360    4.3570 hc        1 MOL      0.004752
    114 H50         1.9430   -4.2040    3.6330 hc        1 MOL      0.004752
    115 H51         5.2310   -2.2220    2.7840 hc        1 MOL      0.133016
    116 H52         5.4420   -3.9260    3.3360 hc        1 MOL      0.133016
    117 H53         5.5840   -3.5920    1.7090 hc        1 MOL      0.133016
    118 H54         3.7680   -2.0640    4.7730 hc        1 MOL      0.031941
    119 H55         2.2200   -1.6420    3.9340 hc        1 MOL      0.031941
    120 H56         2.1550   -2.6240    5.3480 hc        1 MOL      0.031941
    121 N11         3.6410   -3.6180   -0.7720 n         1 MOL     -0.176088
    122 C40         3.9600   -3.5450   -2.1510 c3        1 MOL      0.016110
    123 C41         5.4410   -3.2700   -2.4900 c         1 MOL      0.205647
    124 O16         5.7790   -2.4900   -3.3880 o         1 MOL     -0.430167
    125 C42         3.6200   -4.8210   -2.8600 c3        1 MOL      0.007101
    126 O17         2.2050   -5.0330   -2.7610 oh        1 MOL     -0.524860
    127 H57         3.0360   -4.3680   -0.4820 hn        1 MOL      0.250821
    128 H58         3.3230   -2.7660   -2.5590 h1        1 MOL      0.163878
    129 H59         4.0940   -5.6130   -2.2770 h1        1 MOL      0.073021
    130 H60         3.9580   -4.7000   -3.8900 h1        1 MOL      0.073021
    131 H61         2.0920   -5.9170   -3.0950 ho        1 MOL      0.403387
    132 N12         6.2400   -3.7880   -1.6010 n         1 MOL     -0.170461
    133 C43         7.7050   -3.5880   -1.4230 c3        1 MOL      0.105250
    134 C44         8.1140   -2.1120   -1.4050 c         1 MOL      0.566622
    135 O18         9.3030   -1.8470   -1.7000 o         1 MOL     -0.537074
    136 C45         8.4610   -4.4890   -2.4450 c3        1 MOL     -0.427948
    137 H62         5.8100   -4.3210   -0.8570 hn        1 MOL      0.198756
    138 H63         7.8880   -4.0050   -0.4420 h1        1 MOL      0.058807
    139 H64         8.1680   -5.5150   -2.2580 hc        1 MOL      0.132228
    140 H65         8.3120   -4.2570   -3.5020 hc        1 MOL      0.132228
    141 H66         9.5330   -4.3370   -2.3120 hc        1 MOL      0.132228
    142 N13         7.2110   -1.2680   -1.0210 n         1 MOL     -0.616886
    143 C46         7.2700    0.1920   -1.3900 c3        1 MOL      0.469598
    144 C47         7.0570    1.1740   -0.2190 c         1 MOL      0.431663
    145 O19         6.2180    0.9270    0.6250 o         1 MOL     -0.546076
    146 C48         6.3130    0.4240   -2.5620 c3        1 MOL     -0.075270
    147 H67         6.2660   -1.6110   -1.0450 hn        1 MOL      0.205051
    148 H68         8.2670    0.3750   -1.7990 h1        1 MOL     -0.042281
    149 H69         6.3180    1.5050   -2.6880 hc        1 MOL      0.019288
    150 H70         6.5620   -0.0620   -3.5120 hc        1 MOL      0.019288
    151 H71         5.3130    0.1420   -2.2370 hc        1 MOL      0.019288
    152 N14         7.7610    2.3190   -0.2650 n         1 MOL     -0.426209
    153 C49         7.8970    3.3020    0.7810 c3        1 MOL      0.025586
    154 C50         8.3100    2.7220    2.1220 c         1 MOL      0.377727
    155 O20         7.9620    3.2300    3.1850 o         1 MOL     -0.453655
    156 C51         6.5000    4.0770    0.8460 c3        1 MOL     -0.111719
    157 C52         6.3310    5.3710    1.6430 c3        1 MOL     -0.068130
    158 C53         7.3660    6.4330    1.3140 c         1 MOL      0.687068
    159 O21         7.8350    7.1210    2.2540 o         1 MOL     -0.675210
    160 O22         7.5970    6.5980    0.0940 o         1 MOL     -0.675210
    161 H72         8.4580    2.3300   -0.9890 hn        1 MOL      0.279428
    162 H73         8.6030    4.0540    0.4470 h1        1 MOL      0.120393
    163 H74         5.6500    3.4910    1.2110 hc        1 MOL      0.035929
    164 H75         6.2330    4.3130   -0.1850 hc        1 MOL      0.035929
    165 H76         6.2820    5.1110    2.7060 hc        1 MOL     -0.009149
    166 H77         5.3250    5.7350    1.4470 hc        1 MOL     -0.009149
    167 N15         9.0170    1.5790    2.2570 n         1 MOL     -0.271186
    168 C54         9.4160    0.8840    3.5410 c3        1 MOL      0.015859
    169 H78         9.1040   -0.1590    3.5010 h1        1 MOL      0.045236
    170 H79        10.4980    0.9350    3.6620 h1        1 MOL      0.045236
    171 H80         8.9320    1.3750    4.3860 h1        1 MOL      0.045236
    172 H81         9.3660    1.1710    1.3960 hn        1 MOL      0.191455
    173 Ca1         0.9680    1.5400    1.5500 Ca        1 MOL      1.909853
    174 O23        -0.4510    3.7390    1.3440 oh        1 MOL     -0.866631
    175 H82        -0.0140    4.5900    1.2900 ho        1 MOL      0.429315
    176 H83        -1.2970    3.9260    1.7380 ho        1 MOL      0.429315
    177 O24         2.4520    3.9550    2.2010 oh        1 MOL     -0.866631
    178 H84         3.3750    3.7190    2.2550 ho        1 MOL      0.429315
    179 H85         2.4080    4.8260    2.6000 ho        1 MOL      0.429315
    180 O25         2.3120    1.2550    3.8440 oh        1 MOL     -0.866631
    181 H86         3.2420    1.4610    3.9030 ho        1 MOL      0.429315
    182 H87         2.1650    0.6180    4.5400 ho        1 MOL      0.429315
    183 O26        -0.3270    2.3840    3.9850 oh        1 MOL     -0.866631
    184 H88         0.2610    2.2260    4.7220 ho        1 MOL      0.429315
    185 H89        -1.1670    2.6160    4.4000 ho        1 MOL      0.429315
    186 O27         3.5900    0.7670    1.1400 oh        1 MOL     -0.866631
    187 H90         4.3850    1.1060    1.5360 ho        1 MOL      0.429315
    188 H91         3.9030    0.1570    0.4650 ho        1 MOL      0.429315
    189 O28        -0.0020   -0.5430    3.0760 oh        1 MOL     -0.866631
    190 H92        -0.2110   -0.9210    3.9280 ho        1 MOL      0.429315
    191 H93        -0.7540    0.0190    2.8710 ho        1 MOL      0.429315
@<TRIPOS>BOND
     1    1    2 1   
     2    1    4 1   
     3    1    5 1   
     4    1    6 1   
     5    2    3 2   
     6    2    7 1   
     7    7    8 1   
     8    7   15 1   
     9    8    9 1   
    10    8   11 1   
    11    8   16 1   
    12    9   10 2   
    13    9   19 1   
    14   11   12 1   
    15   11   17 1   
    16   11   18 1   
    17   12   13 1   
    18   12   14 1   
    19   19   20 1   
    20   19   28 1   
    21   20   21 1   
    22   20   23 1   
    23   20   29 1   
    24   21   22 2   
    25   21   41 1   
    26   23   24 1   
    27   23   30 1   
    28   23   31 1   
    29   24   25 1   
    30   24   32 1   
    31   24   33 1   
    32   25   26 1   
    33   25   34 1   
    34   25   35 1   
    35   26   27 1   
    36   26   36 1   
    37   26   37 1   
    38   27   38 1   
    39   27   39 1   
    40   27   40 1   
    41   41   42 1   
    42   41   49 1   
    43   42   43 1   
    44   42   45 1   
    45   42   50 1   
    46   43   44 2   
    47   43   53 1   
    48   45   46 1   
    49   45   51 1   
    50   45   52 1   
    51   46   47 1   
    52   46   48 1   
    53   53   54 1   
    54   53   57 1   
    55   54   55 1   
    56   54   58 1   
    57   54   59 1   
    58   55   56 2   
    59   55   60 1   
    60   60   61 1   
    61   60   68 1   
    62   61   62 1   
    63   61   64 1   
    64   61   69 1   
    65   62   63 2   
    66   62   74 1   
    67   64   65 1   
    68   64   70 1   
    69   64   71 1   
    70   65   66 1   
    71   65   67 2   
    72   66   72 1   
    73   66   73 1   
    74   74   75 1   
    75   74   78 1   
    76   75   76 1   
    77   75   79 1   
    78   75   80 1   
    79   76   77 2   
    80   76   81 1   
    81   81   82 1   
    82   81   93 1   
    83   82   83 1   
    84   82   85 1   
    85   82   94 1   
    86   83   84 2   
    87   83  102 1   
    88   85   86 1   
    89   85   95 1   
    90   85   96 1   
    91   86   87 ar  
    92   86   88 ar  
    93   87   89 ar  
    94   87   97 1   
    95   88   90 ar  
    96   88   98 1   
    97   89   91 ar  
    98   89   99 1   
    99   90   91 ar  
   100   90  100 1   
   101   91   92 1   
   102   92  101 1   
   103  102  103 1   
   104  102  110 1   
   105  103  104 1   
   106  103  106 1   
   107  103  111 1   
   108  104  105 2   
   109  104  121 1   
   110  106  107 1   
   111  106  108 1   
   112  106  112 1   
   113  107  109 1   
   114  107  113 1   
   115  107  114 1   
   116  108  115 1   
   117  108  116 1   
   118  108  117 1   
   119  109  118 1   
   120  109  119 1   
   121  109  120 1   
   122  121  122 1   
   123  121  127 1   
   124  122  123 1   
   125  122  125 1   
   126  122  128 1   
   127  123  124 2   
   128  123  132 1   
   129  125  126 1   
   130  125  129 1   
   131  125  130 1   
   132  126  131 1   
   133  132  133 1   
   134  132  137 1   
   135  133  134 1   
   136  133  136 1   
   137  133  138 1   
   138  134  135 2   
   139  134  142 1   
   140  136  139 1   
   141  136  140 1   
   142  136  141 1   
   143  142  143 1   
   144  142  147 1   
   145  143  144 1   
   146  143  146 1   
   147  143  148 1   
   148  144  145 2   
   149  144  152 1   
   150  146  149 1   
   151  146  150 1   
   152  146  151 1   
   153  152  153 1   
   154  152  161 1   
   155  153  154 1   
   156  153  156 1   
   157  153  162 1   
   158  154  155 2   
   159  154  167 1   
   160  156  157 1   
   161  156  163 1   
   162  156  164 1   
   163  157  158 1   
   164  157  165 1   
   165  157  166 1   
   166  158  159 1   
   167  158  160 1   
   168  167  168 1   
   169  167  172 1   
   170  168  169 1   
   171  168  170 1   
   172  168  171 1   
   173  174  175 1   
   174  174  176 1   
   175  177  178 1   
   176  177  179 1   
   177  180  181 1   
   178  180  182 1   
   179  183  184 1   
   180  183  185 1   
   181  186  187 1   
   182  186  188 1   
   183  189  190 1   
   184  189  191 1   
@<TRIPOS>SUBSTRUCTURE
     1 MOL         1 TEMP              0 ****  ****    0 ROOT
