@<TRIPOS>MOLECULE
MOL
  201   193     1     0     0
SMALL
resp


@<TRIPOS>ATOM
      1 C1         -4.1440   -3.4080    2.0610 c3        1 MOL     -0.170276
      2 C2         -2.8260   -3.4330    1.2160 c         1 MOL      0.728396
      3 O1         -2.0650   -2.4720    1.3450 o         1 MOL     -0.619939
      4 H1         -4.1220   -2.5580    2.7430 hc        1 MOL      0.014849
      5 H2         -5.0020   -3.3150    1.3950 hc        1 MOL      0.014849
      6 H3         -4.2270   -4.3310    2.6340 hc        1 MOL      0.014849
      7 N1         -2.5550   -4.4220    0.4680 n         1 MOL     -0.432588
      8 C3         -1.4700   -4.5970   -0.5600 c3        1 MOL      0.010982
      9 C4          0.0140   -4.4570   -0.1030 c         1 MOL      0.674198
     10 O2          0.9120   -4.2030   -0.9120 o         1 MOL     -0.567647
     11 C5         -1.8170   -3.8310   -1.8690 c3        1 MOL     -0.130375
     12 C6         -3.2990   -3.9520   -2.2210 c         1 MOL      0.705783
     13 O3         -3.7890   -5.1130   -2.4380 o         1 MOL     -0.677909
     14 O4         -4.0280   -2.9190   -2.1120 o         1 MOL     -0.677909
     15 H4         -3.3200   -5.0800    0.3940 hn        1 MOL      0.266347
     16 H5         -1.6070   -5.6540   -0.7710 h1        1 MOL      0.073148
     17 H6         -1.3540   -4.4020   -2.6770 hc        1 MOL      0.050063
     18 H7         -1.4170   -2.8270   -1.9830 hc        1 MOL      0.050063
     19 N2          0.2950   -4.6450    1.1850 n         1 MOL     -0.485381
     20 C7          1.5690   -4.4140    1.7850 c3        1 MOL      0.025056
     21 C8          2.6370   -5.4370    1.5870 c         1 MOL      0.297143
     22 O5          2.3720   -6.5990    1.3680 o         1 MOL     -0.525372
     23 C9          1.4670   -4.3020    3.3350 c3        1 MOL      0.457065
     24 C10         0.8300   -5.6010    3.9060 c3        1 MOL      0.348844
     25 C11         0.6930   -3.0520    3.6890 c3        1 MOL     -0.355271
     26 C12         0.9880   -5.7080    5.4360 c3        1 MOL     -0.505501
     27 H8         -0.4690   -4.7920    1.8390 hn        1 MOL      0.141307
     28 H9          1.9680   -3.4740    1.3940 h1        1 MOL      0.045315
     29 H10         2.4960   -4.1730    3.6560 hc        1 MOL     -0.090160
     30 H11         1.2390   -6.5100    3.4650 hc        1 MOL     -0.072256
     31 H12        -0.2580   -5.6110    3.7810 hc        1 MOL     -0.072256
     32 H13        -0.3640   -3.1400    3.4340 hc        1 MOL      0.067075
     33 H14         0.8220   -2.9050    4.7640 hc        1 MOL      0.067075
     34 H15         0.9910   -2.2460    3.0320 hc        1 MOL      0.067075
     35 H16         0.2660   -5.0720    5.9510 hc        1 MOL      0.105892
     36 H17         0.8860   -6.7600    5.6980 hc        1 MOL      0.105892
     37 H18         1.9950   -5.5320    5.8340 hc        1 MOL      0.105892
     38 N3          3.9570   -5.1100    1.6540 n         1 MOL     -0.265343
     39 C13         4.5810   -3.7950    1.5240 c3        1 MOL      0.071971
     40 C14         4.6520   -3.4050   -0.0100 c         1 MOL      0.403834
     41 O6          4.6710   -2.2750   -0.4230 o         1 MOL     -0.504586
     42 C15         6.0080   -3.9060    2.1200 c3        1 MOL     -0.178008
     43 C16         6.1560   -4.6930    3.3920 c         1 MOL      0.674112
     44 O7          5.3060   -4.6730    4.2950 o         1 MOL     -0.678425
     45 O8          7.1350   -5.5070    3.5820 o         1 MOL     -0.678425
     46 H19         4.5200   -5.8420    1.2500 hn        1 MOL      0.248958
     47 H20         3.9770   -3.1380    2.1480 h1        1 MOL      0.056338
     48 H21         6.3690   -2.8950    2.2990 hc        1 MOL      0.010427
     49 H22         6.5820   -4.4090    1.3490 hc        1 MOL      0.010427
     50 N4          4.6800   -4.4170   -0.9190 n         1 MOL     -0.066389
     51 C17         4.8210   -4.1580   -2.3220 c3        1 MOL     -0.481647
     52 C18         6.1980   -3.6330   -2.7300 c         1 MOL      0.698457
     53 O9          7.1040   -4.4490   -2.8170 o         1 MOL     -0.605635
     54 H23         4.7280   -5.3720   -0.5950 hn        1 MOL      0.228868
     55 H24         4.1670   -3.2970   -2.4970 h1        1 MOL      0.165865
     56 H25         4.5830   -5.0330   -2.9110 h1        1 MOL      0.165865
     57 N5          6.4430   -2.3260   -2.8280 n         1 MOL     -0.539341
     58 C19         7.7790   -1.8060   -3.0610 c3        1 MOL      0.067373
     59 C20         8.4110   -1.0910   -1.8710 c         1 MOL      0.378109
     60 O10         9.4770   -0.5250   -1.8770 o         1 MOL     -0.523686
     61 C21         7.6850   -0.8760   -4.3280 c3        1 MOL     -0.246445
     62 C22         6.6420    0.1190   -4.2450 c         1 MOL      0.686726
     63 O11         6.4380    0.6370   -3.1130 o         1 MOL     -0.688598
     64 O12         5.9770    0.5350   -5.2270 o         1 MOL     -0.688598
     65 H26         5.7080   -1.6780   -2.5860 hn        1 MOL      0.341088
     66 H27         8.4470   -2.6300   -3.3010 h1        1 MOL      0.109888
     67 H28         7.6650   -1.4550   -5.2490 hc        1 MOL      0.054722
     68 H29         8.6720   -0.4560   -4.5010 hc        1 MOL      0.054722
     69 N6          7.6690   -1.1030   -0.7130 n         1 MOL     -0.038286
     70 C23         8.1020   -0.5320    0.5460 c3        1 MOL     -0.413737
     71 C24         8.0840    1.0150    0.6360 c         1 MOL      0.758923
     72 O13         8.5200    1.6660    1.5610 o         1 MOL     -0.624359
     73 H30         6.7690   -1.5590   -0.7310 hn        1 MOL      0.139747
     74 H31         9.0610   -0.9200    0.8890 h1        1 MOL      0.145738
     75 H32         7.3760   -0.8000    1.3170 h1        1 MOL      0.145738
     76 N7          7.4660    1.5940   -0.4280 n         1 MOL     -0.379128
     77 C25         7.3000    3.0310   -0.6590 c3        1 MOL      0.016483
     78 C26         6.5630    3.7810    0.4960 c         1 MOL      0.337893
     79 O14         6.5870    5.0130    0.5690 o         1 MOL     -0.514103
     80 C27         8.6450    3.7840   -0.9420 c3        1 MOL      0.030506
     81 C28         9.2830    3.1580   -2.1490 c3        1 MOL     -0.316699
     82 C29        10.5970    3.7850   -2.5990 c         1 MOL      0.775763
     83 N8         11.1750    3.3310   -3.6710 n         1 MOL     -0.882272
     84 O15        11.1780    4.6260   -2.0170 o         1 MOL     -0.603634
     85 H33         7.1720    1.0300   -1.2020 hn        1 MOL      0.184909
     86 H34         6.6840    3.1570   -1.5430 h1        1 MOL      0.116686
     87 H35         9.3380    3.7560   -0.0980 hc        1 MOL      0.035036
     88 H36         8.4500    4.8350   -1.1690 hc        1 MOL      0.035036
     89 H37         8.5740    3.0380   -2.9720 hc        1 MOL      0.121835
     90 H38         9.6180    2.1470   -1.8880 hc        1 MOL      0.121835
     91 H39        10.7630    2.6400   -4.2900 hn        1 MOL      0.358055
     92 H40        12.1070    3.6430   -3.9270 hn        1 MOL      0.358055
     93 N9          5.8560    3.1270    1.3880 n         1 MOL     -0.103826
     94 C30         5.0730    3.7230    2.4790 c3        1 MOL     -0.125746
     95 C31         3.5730    3.6430    2.2400 c         1 MOL      0.688092
     96 O16         2.8990    4.4930    2.8330 o         1 MOL     -0.567489
     97 C32         5.4630    3.0640    3.7890 c3        1 MOL      0.402948
     98 C33         5.2590    1.5710    3.8070 c3        1 MOL     -0.455492
     99 C34         6.8940    3.4810    4.2270 c3        1 MOL     -0.455492
    100 H41         5.8190    2.1210    1.3700 hn        1 MOL      0.129327
    101 H42         5.2950    4.7860    2.5500 h1        1 MOL      0.088325
    102 H43         4.7500    3.4580    4.5170 hc        1 MOL     -0.065747
    103 H44         6.1480    1.0910    3.3860 hc        1 MOL      0.109436
    104 H45         5.1730    1.2690    4.8450 hc        1 MOL      0.109436
    105 H46         4.4610    1.1360    3.1990 hc        1 MOL      0.109436
    106 H47         7.5370    3.1400    3.4160 hc        1 MOL      0.109436
    107 H48         6.9740    4.5690    4.3220 hc        1 MOL      0.109436
    108 H49         7.0140    3.0060    5.1920 hc        1 MOL      0.109436
    109 N10         3.1090    2.7570    1.3140 n         1 MOL     -0.749839
    110 C35         1.6970    2.4040    1.1710 c3        1 MOL      0.427259
    111 C36         0.9090    3.3780    0.2550 c         1 MOL      0.636243
    112 O17         1.5090    4.1140   -0.5120 o         1 MOL     -0.530827
    113 C37         1.5890    0.8910    0.8080 c3        1 MOL     -0.487792
    114 C38         0.2310    0.3180    0.9730 c         1 MOL      0.770938
    115 N11         0.0560   -0.8200    0.3460 n         1 MOL     -0.684598
    116 O18        -0.5700    0.9220    1.7250 o         1 MOL     -0.586348
    117 H50         3.8010    2.0730    1.0260 hn        1 MOL      0.326421
    118 H51         1.3050    2.6130    2.1630 h1        1 MOL     -0.014211
    119 H52         2.2010    0.3990    1.5660 hc        1 MOL      0.115162
    120 H53         2.0970    0.6310   -0.1190 hc        1 MOL      0.115162
    121 H54         0.8110   -1.1960   -0.2190 hn        1 MOL      0.341284
    122 H55        -0.7560   -1.3960    0.5060 hn        1 MOL      0.341284
    123 N12        -0.4450    3.2490    0.2670 n         1 MOL     -0.683010
    124 C39        -1.3950    4.0960   -0.4420 c3        1 MOL      0.230928
    125 C40        -2.8480    4.2780    0.1980 c         1 MOL      0.659897
    126 O19        -3.2040    3.5050    1.0560 o         1 MOL     -0.614966
    127 C41        -1.4070    3.8230   -1.9000 c3        1 MOL     -0.135963
    128 C42        -2.3300    2.6270   -2.2710 ca        1 MOL      0.029580
    129 C43        -2.0340    1.3120   -1.7930 ca        1 MOL     -0.171271
    130 C44        -3.6060    2.9230   -2.8330 ca        1 MOL     -0.171271
    131 C45        -2.9310    0.3550   -1.9790 ca        1 MOL     -0.228936
    132 C46        -4.4500    1.8470   -2.9630 ca        1 MOL     -0.228936
    133 C47        -4.1040    0.5830   -2.5730 ca        1 MOL      0.397849
    134 O20        -4.9330   -0.4700   -2.7060 oh        1 MOL     -0.661474
    135 H56        -0.8250    2.5100    0.8310 hn        1 MOL      0.338477
    136 H57        -0.9480    5.0790   -0.3250 h1        1 MOL      0.021260
    137 H58        -0.3970    3.5890   -2.2280 hc        1 MOL      0.048146
    138 H59        -1.7270    4.7090   -2.4350 hc        1 MOL      0.048146
    139 H60        -1.0760    1.0430   -1.3670 ha        1 MOL      0.133981
    140 H61        -3.9630    3.9340   -2.9130 ha        1 MOL      0.133981
    141 H62        -2.7380   -0.6470   -1.6250 ha        1 MOL      0.112246
    142 H63        -5.4420    2.0230   -3.3590 ha        1 MOL      0.112246
    143 H64        -4.5610   -1.3380   -2.5450 ho        1 MOL      0.423275
    144 N13        -3.5880    5.2560   -0.2520 n         1 MOL     -0.587102
    145 C48        -5.0350    5.4490    0.0770 c3        1 MOL      0.203137
    146 C49        -6.0120    4.9220   -1.1010 c         1 MOL      0.351463
    147 O21        -6.1600    5.5990   -2.1500 o         1 MOL     -0.546311
    148 C50        -5.1940    6.9090    0.3240 c3        1 MOL      0.101737
    149 C51        -4.2270    7.4010    1.4990 c3        1 MOL     -0.213889
    150 C52        -4.5680    8.9200    1.7670 c         1 MOL      0.687227
    151 O22        -4.6140    9.6090    0.7250 o         1 MOL     -0.692724
    152 O23        -4.8170    9.2870    2.9540 o         1 MOL     -0.692724
    153 H65        -3.2250    5.8540   -0.9750 hn        1 MOL      0.322979
    154 H66        -5.3160    4.8760    0.9620 h1        1 MOL      0.039601
    155 H67        -6.2250    7.0610    0.6170 hc        1 MOL      0.001528
    156 H68        -5.1110    7.4410   -0.6240 hc        1 MOL      0.001528
    157 H69        -3.2030    7.2960    1.1340 hc        1 MOL      0.022860
    158 H70        -4.4970    6.8210    2.3900 hc        1 MOL      0.022860
    159 N14        -6.6180    3.7580   -0.9590 n         1 MOL     -0.302634
    160 C53        -6.4670    2.7070    0.0800 c3        1 MOL     -0.065505
    161 C54        -6.9760    3.1820    1.4220 c         1 MOL      0.473369
    162 O24        -7.8350    4.0920    1.5050 o         1 MOL     -0.546517
    163 C55        -7.0880    1.3660   -0.3100 c3        1 MOL     -0.047587
    164 C56        -8.6270    1.5500   -0.4370 c3        1 MOL     -0.500845
    165 C57        -9.3100    0.1710   -0.4720 c         1 MOL      0.945905
    166 O25       -10.4010    0.1040   -1.0530 o         1 MOL     -0.769779
    167 O26        -8.8270   -0.7500    0.2270 o         1 MOL     -0.769779
    168 H71        -7.2580    3.5260   -1.7120 hn        1 MOL      0.270892
    169 H72        -5.4080    2.5480    0.2610 h1        1 MOL      0.113597
    170 H73        -6.8400    0.7300    0.5390 hc        1 MOL      0.052330
    171 H74        -6.6370    1.0730   -1.2670 hc        1 MOL      0.052330
    172 H75        -8.8210    2.0480   -1.3890 hc        1 MOL      0.149701
    173 H76        -9.0740    2.1670    0.3390 hc        1 MOL      0.149701
    174 N15        -6.6150    2.4840    2.4500 n         1 MOL     -0.186719
    175 C58        -6.9510    2.6180    3.8370 c3        1 MOL     -0.204789
    176 H77        -7.9240    3.1020    3.9300 h1        1 MOL      0.094160
    177 H78        -6.9930    1.6300    4.2990 h1        1 MOL      0.094160
    178 H79        -6.1950    3.2220    4.3390 h1        1 MOL      0.094160
    179 H80        -5.9910    1.6990    2.3030 hn        1 MOL      0.255993
    180 Ca1        -8.3460   -3.1740   -0.7040 Ca        1 MOL      1.752964
    181 O27        -5.8390   -2.2790   -0.6150 oh        1 MOL     -0.818082
    182 H81        -5.6510   -1.3370   -0.6150 ho        1 MOL      0.381893
    183 H82        -5.2660   -2.6360   -1.2910 ho        1 MOL      0.381893
    184 O28        -8.1840   -1.3720   -2.5760 oh        1 MOL     -0.818082
    185 H83        -7.6980   -1.6270   -3.3680 ho        1 MOL      0.381893
    186 H84        -8.9110   -0.8430   -2.8990 ho        1 MOL      0.381893
    187 O29        -9.7070   -3.7970    1.8660 oh        1 MOL     -0.818082
    188 H85       -10.3500   -3.2030    2.2330 ho        1 MOL      0.381893
    189 H86        -9.7910   -4.6040    2.3860 ho        1 MOL      0.381893
    190 O30        -9.3930   -4.3470   -3.0070 oh        1 MOL     -0.818082
    191 H87       -10.0730   -3.8180   -3.4360 ho        1 MOL      0.381893
    192 H88        -8.9140   -4.7420   -3.7350 ho        1 MOL      0.381893
    193 O31        -9.2490   -5.7100   -0.3500 oh        1 MOL     -0.818082
    194 H89        -8.6900   -6.4830   -0.2350 ho        1 MOL      0.381893
    195 H90       -10.1400   -6.0270   -0.2120 ho        1 MOL      0.381893
    196 O32       -10.9780   -2.5920   -1.0240 oh        1 MOL     -0.818082
    197 H91       -10.9730   -1.6340   -0.9460 ho        1 MOL      0.381893
    198 H92       -11.6310   -2.7650   -1.7030 ho        1 MOL      0.381893
    199 O33        -6.5460   -5.2730   -1.5140 oh        1 MOL     -0.818082
    200 H93        -5.6470   -5.2690   -1.8460 ho        1 MOL      0.381893
    201 H94        -6.8320   -6.1820   -1.6350 ho        1 MOL      0.381893
@<TRIPOS>BOND
     1    1    2 1   
     2    1    4 1   
     3    1    5 1   
     4    1    6 1   
     5    2    3 2   
     6    2    7 1   
     7    7    8 1   
     8    7   15 1   
     9    8    9 1   
    10    8   11 1   
    11    8   16 1   
    12    9   10 2   
    13    9   19 1   
    14   11   12 1   
    15   11   17 1   
    16   11   18 1   
    17   12   13 1   
    18   12   14 1   
    19   19   20 1   
    20   19   27 1   
    21   20   21 1   
    22   20   23 1   
    23   20   28 1   
    24   21   22 2   
    25   21   38 1   
    26   23   24 1   
    27   23   25 1   
    28   23   29 1   
    29   24   26 1   
    30   24   30 1   
    31   24   31 1   
    32   25   32 1   
    33   25   33 1   
    34   25   34 1   
    35   26   35 1   
    36   26   36 1   
    37   26   37 1   
    38   38   39 1   
    39   38   46 1   
    40   39   40 1   
    41   39   42 1   
    42   39   47 1   
    43   40   41 2   
    44   40   50 1   
    45   42   43 1   
    46   42   48 1   
    47   42   49 1   
    48   43   44 1   
    49   43   45 1   
    50   50   51 1   
    51   50   54 1   
    52   51   52 1   
    53   51   55 1   
    54   51   56 1   
    55   52   53 2   
    56   52   57 1   
    57   57   58 1   
    58   57   65 1   
    59   58   59 1   
    60   58   61 1   
    61   58   66 1   
    62   59   60 2   
    63   59   69 1   
    64   61   62 1   
    65   61   67 1   
    66   61   68 1   
    67   62   63 1   
    68   62   64 1   
    69   69   70 1   
    70   69   73 1   
    71   70   71 1   
    72   70   74 1   
    73   70   75 1   
    74   71   72 2   
    75   71   76 1   
    76   76   77 1   
    77   76   85 1   
    78   77   78 1   
    79   77   80 1   
    80   77   86 1   
    81   78   79 2   
    82   78   93 1   
    83   80   81 1   
    84   80   87 1   
    85   80   88 1   
    86   81   82 1   
    87   81   89 1   
    88   81   90 1   
    89   82   83 1   
    90   82   84 2   
    91   83   91 1   
    92   83   92 1   
    93   93   94 1   
    94   93  100 1   
    95   94   95 1   
    96   94   97 1   
    97   94  101 1   
    98   95   96 2   
    99   95  109 1   
   100   97   98 1   
   101   97   99 1   
   102   97  102 1   
   103   98  103 1   
   104   98  104 1   
   105   98  105 1   
   106   99  106 1   
   107   99  107 1   
   108   99  108 1   
   109  109  110 1   
   110  109  117 1   
   111  110  111 1   
   112  110  113 1   
   113  110  118 1   
   114  111  112 2   
   115  111  123 1   
   116  113  114 1   
   117  113  119 1   
   118  113  120 1   
   119  114  115 1   
   120  114  116 2   
   121  115  121 1   
   122  115  122 1   
   123  123  124 1   
   124  123  135 1   
   125  124  125 1   
   126  124  127 1   
   127  124  136 1   
   128  125  126 2   
   129  125  144 1   
   130  127  128 1   
   131  127  137 1   
   132  127  138 1   
   133  128  129 ar  
   134  128  130 ar  
   135  129  131 ar  
   136  129  139 1   
   137  130  132 ar  
   138  130  140 1   
   139  131  133 ar  
   140  131  141 1   
   141  132  133 ar  
   142  132  142 1   
   143  133  134 1   
   144  134  143 1   
   145  144  145 1   
   146  144  153 1   
   147  145  146 1   
   148  145  148 1   
   149  145  154 1   
   150  146  147 2   
   151  146  159 1   
   152  148  149 1   
   153  148  155 1   
   154  148  156 1   
   155  149  150 1   
   156  149  157 1   
   157  149  158 1   
   158  150  151 1   
   159  150  152 1   
   160  159  160 1   
   161  159  168 1   
   162  160  161 1   
   163  160  163 1   
   164  160  169 1   
   165  161  162 2   
   166  161  174 1   
   167  163  164 1   
   168  163  170 1   
   169  163  171 1   
   170  164  165 1   
   171  164  172 1   
   172  164  173 1   
   173  165  166 1   
   174  165  167 1   
   175  174  175 1   
   176  174  179 1   
   177  175  176 1   
   178  175  177 1   
   179  175  178 1   
   180  181  182 1   
   181  181  183 1   
   182  184  185 1   
   183  184  186 1   
   184  187  188 1   
   185  187  189 1   
   186  190  191 1   
   187  190  192 1   
   188  193  194 1   
   189  193  195 1   
   190  196  197 1   
   191  196  198 1   
   192  199  200 1   
   193  199  201 1   
@<TRIPOS>SUBSTRUCTURE
     1 MOL         1 TEMP              0 ****  ****    0 ROOT
