@<TRIPOS>MOLECULE
MOL
  189   185     1     0     0
SMALL
resp


@<TRIPOS>ATOM
      1 C1          9.1990    2.5810    0.6220 c3        1 MOL     -0.404078
      2 C2          8.2650    1.4380    0.2240 c         1 MOL      0.582616
      3 O1          7.3280    1.1600    0.9790 o         1 MOL     -0.596814
      4 H1          8.7820    3.5280    0.2770 hc        1 MOL      0.111449
      5 H2          9.3030    2.6050    1.7070 hc        1 MOL      0.111449
      6 H3         10.1770    2.4270    0.1660 hc        1 MOL      0.111449
      7 N1          8.3430    0.9960   -1.0810 n         1 MOL     -0.334627
      8 C3          7.3180    0.2140   -1.7170 c3        1 MOL     -0.023002
      9 C4          7.2420   -1.2420   -1.3250 c         1 MOL      0.428390
     10 O2          7.2460   -2.1180   -2.2660 o         1 MOL     -0.457025
     11 C5          7.4770    0.4900   -3.2000 c3        1 MOL     -0.121207
     12 C6          8.9090    0.3280   -3.7730 c         1 MOL      0.710791
     13 O3          9.1580   -0.5440   -4.6400 o         1 MOL     -0.666885
     14 O4          9.7390    1.2420   -3.4550 o         1 MOL     -0.666885
     15 H4          9.2010    1.2080   -1.5580 hn        1 MOL      0.178561
     16 H5          6.3270    0.5890   -1.4540 h1        1 MOL      0.120319
     17 H6          7.1620    1.5150   -3.3870 hc        1 MOL      0.044781
     18 H7          6.8810   -0.1660   -3.8360 hc        1 MOL      0.044781
     19 N2          7.0860   -1.7090   -0.0860 n         1 MOL     -0.465736
     20 C7          6.7620   -3.0790    0.3130 c3        1 MOL      0.378578
     21 C8          5.2760   -3.4330    0.1050 c         1 MOL      0.457970
     22 O5          5.0670   -4.5400   -0.3970 o         1 MOL     -0.555156
     23 C9          7.2500   -3.4060    1.7310 c3        1 MOL     -0.326385
     24 C10         8.7650   -3.5290    1.6920 c3        1 MOL      0.148990
     25 C11         9.4270   -3.8460    2.9710 c3        1 MOL      0.022317
     26 C12        10.8690   -3.8370    2.9260 c3        1 MOL      0.015375
     27 N3         11.3620   -4.9930    2.0930 n4        1 MOL     -0.352290
     28 H8          7.1410   -1.0260    0.6650 hn        1 MOL      0.225964
     29 H9          7.2950   -3.7420   -0.3720 h1        1 MOL     -0.005562
     30 H10         6.7560   -4.3640    1.8980 hc        1 MOL      0.067907
     31 H11         6.9070   -2.6700    2.4580 hc        1 MOL      0.067907
     32 H12         9.1680   -2.5910    1.3060 hc        1 MOL     -0.006894
     33 H13         9.0460   -4.2920    0.9710 hc        1 MOL     -0.006894
     34 H14         9.1470   -4.8460    3.3110 hc        1 MOL      0.020448
     35 H15         9.2600   -3.1820    3.8280 hc        1 MOL      0.020448
     36 H16        11.2550   -3.9320    3.9400 hx        1 MOL      0.086736
     37 H17        11.2460   -2.9190    2.4780 hx        1 MOL      0.086736
     38 H18        12.3650   -4.9790    2.0200 hn        1 MOL      0.288910
     39 H19        10.9970   -5.8700    2.4320 hn        1 MOL      0.288910
     40 H20        11.0170   -4.9790    1.1450 hn        1 MOL      0.288910
     41 N4          4.3050   -2.5340    0.0960 n         1 MOL     -0.415122
     42 C13         4.2010   -1.3480    0.8630 c3        1 MOL      0.204725
     43 C14         4.0310   -0.1470   -0.1550 c         1 MOL      0.076623
     44 O6          3.8140   -0.2820   -1.3730 o         1 MOL     -0.314630
     45 C15         3.0220   -1.4240    1.8410 c3        1 MOL     -0.600453
     46 C16         1.6860   -1.7550    1.1140 c         1 MOL      0.922254
     47 O7          0.9430   -0.8490    0.8060 o         1 MOL     -0.751685
     48 O8          1.4270   -2.9470    0.7900 o         1 MOL     -0.751685
     49 H21         3.4070   -2.8420   -0.2570 hn        1 MOL      0.372349
     50 H22         5.1290   -1.1460    1.3780 h1        1 MOL      0.085779
     51 H23         2.8340   -0.5620    2.4910 hc        1 MOL      0.127574
     52 H24         3.2010   -2.2480    2.5260 hc        1 MOL      0.127574
     53 N5          4.1290    1.0500    0.3970 n         1 MOL     -0.252968
     54 C17         3.9060    2.3050   -0.3480 c3        1 MOL     -0.060645
     55 C18         2.5490    2.5890   -0.9760 c         1 MOL      0.400619
     56 O9          1.5530    1.9770   -0.6230 o         1 MOL     -0.329763
     57 H25         4.3080    1.1950    1.3760 hn        1 MOL      0.286228
     58 H26         4.5700    2.3370   -1.2170 h1        1 MOL      0.088131
     59 H27         4.1560    3.1260    0.3180 h1        1 MOL      0.088131
     60 N6          2.4140    3.6350   -1.7950 n         1 MOL     -0.347973
     61 C19         1.2420    4.4590   -2.2900 c3        1 MOL      0.218136
     62 C20         1.5650    5.9230   -2.4070 c         1 MOL      0.330248
     63 O10         2.6430    6.3400   -2.7670 o         1 MOL     -0.490325
     64 C21         0.6190    3.8380   -3.6050 c3        1 MOL     -0.016695
     65 C22         0.3130    2.3900   -3.4490 c         1 MOL      0.523453
     66 O11        -0.5910    2.0200   -2.6580 o         1 MOL     -0.638747
     67 O12         0.9580    1.5370   -4.1310 o         1 MOL     -0.638747
     68 H28         3.2980    4.0630   -2.0080 hn        1 MOL      0.225453
     69 H29         0.4630    4.3190   -1.5450 h1        1 MOL      0.039682
     70 H30         1.2950    3.9660   -4.4470 hc        1 MOL      0.020957
     71 H31        -0.3280    4.3550   -3.7570 hc        1 MOL      0.020957
     72 N7          0.6270    6.8930   -2.3040 n         1 MOL     -0.297032
     73 C23        -0.7640    6.8310   -2.0750 c3        1 MOL     -0.254331
     74 C24        -1.2220    6.1560   -0.7260 c         1 MOL      0.641034
     75 O13        -0.4250    5.9850    0.2540 o         1 MOL     -0.527101
     76 H32         0.9530    7.8400   -2.3960 hn        1 MOL      0.300918
     77 H33        -1.1880    6.3640   -2.9650 h1        1 MOL      0.112638
     78 H34        -1.1070    7.8620   -2.0640 h1        1 MOL      0.112638
     79 N8         -2.4320    5.5990   -0.7590 n         1 MOL     -0.564870
     80 C25        -3.0330    4.7630    0.3130 c3        1 MOL     -0.045289
     81 C26        -2.1590    3.6680    0.8400 c         1 MOL      0.775888
     82 O14        -1.5980    2.8800    0.1150 o         1 MOL     -0.770244
     83 C27        -4.2910    4.1200   -0.3430 c3        1 MOL      0.572076
     84 C28        -5.4050    5.0440   -0.9790 c3        1 MOL     -0.295617
     85 O15        -4.9080    3.2550    0.6740 oh        1 MOL     -0.732064
     86 H35        -3.0510    5.6400   -1.5520 hn        1 MOL      0.291314
     87 H36        -3.3540    5.3540    1.1680 h1        1 MOL      0.067725
     88 H37        -3.9160    3.4050   -1.0860 h1        1 MOL     -0.052361
     89 H38        -5.1190    2.4260    0.2330 ho        1 MOL      0.387777
     90 H39        -5.1270    5.3090   -2.0000 hc        1 MOL      0.074742
     91 H40        -6.2490    4.3590   -1.0060 hc        1 MOL      0.074742
     92 H41        -5.6470    5.9820   -0.4690 hc        1 MOL      0.074742
     93 N9         -2.0570    3.5750    2.2060 n         1 MOL     -0.576304
     94 C29        -1.3250    2.5730    3.0090 c3        1 MOL      0.203987
     95 C30        -1.8250    1.1570    2.7850 c         1 MOL      0.384099
     96 O16        -1.8220    0.7000    1.6300 o         1 MOL     -0.454521
     97 C31         0.1350    2.7970    2.7700 c3        1 MOL      0.063116
     98 C32         0.5320    4.2410    3.2590 c3        1 MOL      0.073430
     99 C33         0.9800    1.7990    3.5640 c3        1 MOL     -0.458117
    100 C34         0.3690    4.7670    4.6580 c3        1 MOL     -0.296528
    101 H42        -2.5960    4.2430    2.7340 hn        1 MOL      0.286747
    102 H43        -1.5400    2.8160    4.0550 h1        1 MOL      0.009870
    103 H44         0.4280    2.7080    1.7220 hc        1 MOL      0.004124
    104 H45         0.0120    4.9660    2.6230 hc        1 MOL      0.033395
    105 H46         1.5650    4.4050    2.9430 hc        1 MOL      0.033395
    106 H47         1.1440    0.8670    3.0330 hc        1 MOL      0.110084
    107 H48         1.9960    2.1460    3.7400 hc        1 MOL      0.110084
    108 H49         0.6270    1.6360    4.5900 hc        1 MOL      0.110084
    109 H50        -0.6710    4.8600    4.9760 hc        1 MOL      0.073283
    110 H51         0.9130    4.0120    5.2440 hc        1 MOL      0.073283
    111 H52         0.8530    5.7010    4.9160 hc        1 MOL      0.073283
    112 N10        -2.1380    0.3600    3.8050 n         1 MOL     -0.202413
    113 C35        -2.4040   -1.0250    3.7860 c3        1 MOL     -0.167620
    114 C36        -3.8410   -1.3840    3.3670 c         1 MOL      0.680559
    115 O17        -4.1230   -2.4930    2.9010 o         1 MOL     -0.578418
    116 C37        -2.2050   -1.6180    5.2440 c3        1 MOL      0.478974
    117 C38        -3.1120   -1.1290    6.3020 c3        1 MOL     -0.352265
    118 O18        -0.8590   -1.4360    5.6830 oh        1 MOL     -0.644486
    119 H53        -2.0830    0.7580    4.7300 hn        1 MOL      0.201871
    120 H54        -1.8070   -1.6260    3.0930 h1        1 MOL      0.058885
    121 H55        -2.2980   -2.6990    5.2500 h1        1 MOL     -0.010553
    122 H56        -0.2610   -1.7900    5.0120 ho        1 MOL      0.405431
    123 H57        -2.9150   -0.0660    6.4690 hc        1 MOL      0.096329
    124 H58        -4.1500   -1.2910    6.0170 hc        1 MOL      0.096329
    125 H59        -2.8910   -1.5840    7.2710 hc        1 MOL      0.096329
    126 N11        -4.6550   -0.3480    3.3610 n         1 MOL     -0.503423
    127 C39        -5.9540   -0.5030    2.8660 c3        1 MOL      0.059738
    128 C40        -6.0030   -0.7560    1.3930 c         1 MOL      0.366909
    129 O19        -5.2980   -0.0910    0.6390 o         1 MOL     -0.361538
    130 C41        -6.7350    0.7720    3.1700 c3        1 MOL      0.322230
    131 C42        -8.1520    0.8770    2.5660 c3        1 MOL     -0.487833
    132 O20        -7.0210    0.8660    4.5850 oh        1 MOL     -0.600251
    133 H60        -4.2520    0.5740    3.3960 hn        1 MOL      0.204289
    134 H61        -6.5280   -1.3150    3.3220 h1        1 MOL      0.114155
    135 H62        -6.1620    1.6510    2.8650 h1        1 MOL      0.052211
    136 H63        -6.6630    1.6780    4.9450 ho        1 MOL      0.378827
    137 H64        -8.8460    0.1300    2.9390 hc        1 MOL      0.136475
    138 H65        -8.6480    1.7670    2.9590 hc        1 MOL      0.136475
    139 H66        -8.0390    0.9830    1.4950 hc        1 MOL      0.136475
    140 N12        -6.6720   -1.8440    0.9910 n         1 MOL     -0.578535
    141 C43        -6.7330   -2.2990   -0.4490 c3        1 MOL      0.264154
    142 C44        -5.3670   -2.3130   -1.1050 c         1 MOL      0.228413
    143 O21        -5.1620   -1.7080   -2.1440 o         1 MOL     -0.449225
    144 C45        -7.8220   -1.4840   -1.1880 c3        1 MOL     -0.298930
    145 C46        -8.3310   -2.0580   -2.5220 c3        1 MOL      0.206893
    146 C47        -9.0210   -1.0280   -3.4470 c3        1 MOL      0.087234
    147 C48        -9.6380   -1.6670   -4.7350 c3        1 MOL     -0.181278
    148 N13       -10.7910   -2.5410   -4.3500 n4        1 MOL     -0.273520
    149 H67        -7.2580   -2.3570    1.6320 hn        1 MOL      0.326647
    150 H68        -7.0280   -3.3480   -0.4170 h1        1 MOL      0.056601
    151 H69        -7.3910   -0.5210   -1.4400 hc        1 MOL      0.070241
    152 H70        -8.7360   -1.3810   -0.5920 hc        1 MOL      0.070241
    153 H71        -9.0350   -2.8530   -2.2770 hc        1 MOL     -0.034829
    154 H72        -7.5080   -2.5060   -3.0680 hc        1 MOL     -0.034829
    155 H73        -8.3630   -0.2800   -3.8740 hc        1 MOL      0.003965
    156 H74        -9.8130   -0.4740   -2.9570 hc        1 MOL      0.003965
    157 H75        -8.7700   -2.1830   -5.1480 hx        1 MOL      0.157913
    158 H76        -9.9480   -0.8980   -5.4460 hx        1 MOL      0.157913
    159 H77       -11.4430   -2.1190   -3.6980 hn        1 MOL      0.258592
    160 H78       -11.2320   -2.8700   -5.1970 hn        1 MOL      0.258592
    161 H79       -10.3710   -3.3090   -3.8490 hn        1 MOL      0.258592
    162 N14        -4.3760   -3.0100   -0.5410 n         1 MOL     -0.288086
    163 C49        -3.2010   -3.3840   -1.2790 c3        1 MOL      0.051577
    164 C50        -1.8910   -3.0740   -0.4850 c         1 MOL      0.628913
    165 O22        -1.3750   -2.0350   -0.7410 o         1 MOL     -0.662162
    166 C51        -3.3670   -4.8700   -1.7870 c3        1 MOL      0.024410
    167 C52        -4.4980   -4.9590   -2.8730 c3        1 MOL     -0.255691
    168 C53        -4.4770   -6.3440   -3.5010 c         1 MOL      0.637404
    169 O23        -4.8430   -7.3390   -2.7740 o         1 MOL     -0.649752
    170 O24        -4.2470   -6.4620   -4.7590 o         1 MOL     -0.649752
    171 H80        -4.5780   -3.3040    0.4060 hn        1 MOL      0.297115
    172 H81        -3.1290   -2.7640   -2.1710 h1        1 MOL      0.084348
    173 H82        -3.5470   -5.5640   -0.9570 hc        1 MOL      0.026775
    174 H83        -2.4110   -5.0990   -2.2430 hc        1 MOL      0.026775
    175 H84        -4.2420   -4.2190   -3.6330 hc        1 MOL      0.070940
    176 H85        -5.4820   -4.7670   -2.4520 hc        1 MOL      0.070940
    177 N15        -1.3180   -3.8540    0.4150 n         1 MOL     -0.431027
    178 C54        -1.8080   -5.1310    1.0380 c3        1 MOL     -0.080443
    179 H86        -1.7430   -5.0530    2.1230 h1        1 MOL      0.053157
    180 H87        -2.8450   -5.3020    0.7480 h1        1 MOL      0.053157
    181 H88        -1.1930   -5.9620    0.6970 h1        1 MOL      0.053157
    182 H89        -0.3790   -3.6260    0.7190 hn        1 MOL      0.393625
    183 Ca1        -0.5420    0.5360   -0.6830 Ca        1 MOL      1.639588
    184 O25        -3.1750    0.5800   -0.9990 oh        1 MOL     -0.778777
    185 H90        -3.8940    0.8550   -1.5730 ho        1 MOL      0.378821
    186 H91        -3.5120    0.6980   -0.1160 ho        1 MOL      0.378821
    187 O26         0.4030   -0.9530   -2.9000 oh        1 MOL     -0.778777
    188 H92         0.5260   -0.2380   -3.5330 ho        1 MOL      0.378821
    189 H93        -0.3740   -1.4190   -3.2240 ho        1 MOL      0.378821
@<TRIPOS>BOND
     1    1    2 1   
     2    1    4 1   
     3    1    5 1   
     4    1    6 1   
     5    2    3 2   
     6    2    7 1   
     7    7    8 1   
     8    7   15 1   
     9    8    9 1   
    10    8   11 1   
    11    8   16 1   
    12    9   10 2   
    13    9   19 1   
    14   11   12 1   
    15   11   17 1   
    16   11   18 1   
    17   12   13 1   
    18   12   14 1   
    19   19   20 1   
    20   19   28 1   
    21   20   21 1   
    22   20   23 1   
    23   20   29 1   
    24   21   22 2   
    25   21   41 1   
    26   23   24 1   
    27   23   30 1   
    28   23   31 1   
    29   24   25 1   
    30   24   32 1   
    31   24   33 1   
    32   25   26 1   
    33   25   34 1   
    34   25   35 1   
    35   26   27 1   
    36   26   36 1   
    37   26   37 1   
    38   27   38 1   
    39   27   39 1   
    40   27   40 1   
    41   41   42 1   
    42   41   49 1   
    43   42   43 1   
    44   42   45 1   
    45   42   50 1   
    46   43   44 2   
    47   43   53 1   
    48   45   46 1   
    49   45   51 1   
    50   45   52 1   
    51   46   47 1   
    52   46   48 1   
    53   53   54 1   
    54   53   57 1   
    55   54   55 1   
    56   54   58 1   
    57   54   59 1   
    58   55   56 2   
    59   55   60 1   
    60   60   61 1   
    61   60   68 1   
    62   61   62 1   
    63   61   64 1   
    64   61   69 1   
    65   62   63 2   
    66   62   72 1   
    67   64   65 1   
    68   64   70 1   
    69   64   71 1   
    70   65   66 1   
    71   65   67 1   
    72   72   73 1   
    73   72   76 1   
    74   73   74 1   
    75   73   77 1   
    76   73   78 1   
    77   74   75 2   
    78   74   79 1   
    79   79   80 1   
    80   79   86 1   
    81   80   81 1   
    82   80   83 1   
    83   80   87 1   
    84   81   82 2   
    85   81   93 1   
    86   83   84 1   
    87   83   85 1   
    88   83   88 1   
    89   84   90 1   
    90   84   91 1   
    91   84   92 1   
    92   85   89 1   
    93   93   94 1   
    94   93  101 1   
    95   94   95 1   
    96   94   97 1   
    97   94  102 1   
    98   95   96 2   
    99   95  112 1   
   100   97   98 1   
   101   97   99 1   
   102   97  103 1   
   103   98  100 1   
   104   98  104 1   
   105   98  105 1   
   106   99  106 1   
   107   99  107 1   
   108   99  108 1   
   109  100  109 1   
   110  100  110 1   
   111  100  111 1   
   112  112  113 1   
   113  112  119 1   
   114  113  114 1   
   115  113  116 1   
   116  113  120 1   
   117  114  115 2   
   118  114  126 1   
   119  116  117 1   
   120  116  118 1   
   121  116  121 1   
   122  117  123 1   
   123  117  124 1   
   124  117  125 1   
   125  118  122 1   
   126  126  127 1   
   127  126  133 1   
   128  127  128 1   
   129  127  130 1   
   130  127  134 1   
   131  128  129 2   
   132  128  140 1   
   133  130  131 1   
   134  130  132 1   
   135  130  135 1   
   136  131  137 1   
   137  131  138 1   
   138  131  139 1   
   139  132  136 1   
   140  140  141 1   
   141  140  149 1   
   142  141  142 1   
   143  141  144 1   
   144  141  150 1   
   145  142  143 2   
   146  142  162 1   
   147  144  145 1   
   148  144  151 1   
   149  144  152 1   
   150  145  146 1   
   151  145  153 1   
   152  145  154 1   
   153  146  147 1   
   154  146  155 1   
   155  146  156 1   
   156  147  148 1   
   157  147  157 1   
   158  147  158 1   
   159  148  159 1   
   160  148  160 1   
   161  148  161 1   
   162  162  163 1   
   163  162  171 1   
   164  163  164 1   
   165  163  166 1   
   166  163  172 1   
   167  164  165 2   
   168  164  177 1   
   169  166  167 1   
   170  166  173 1   
   171  166  174 1   
   172  167  168 1   
   173  167  175 1   
   174  167  176 1   
   175  168  169 1   
   176  168  170 1   
   177  177  178 1   
   178  177  182 1   
   179  178  179 1   
   180  178  180 1   
   181  178  181 1   
   182  184  185 1   
   183  184  186 1   
   184  187  188 1   
   185  187  189 1   
@<TRIPOS>SUBSTRUCTURE
     1 MOL         1 TEMP              0 ****  ****    0 ROOT
