@<TRIPOS>MOLECULE
MOL
  181   177     1     0     0
SMALL
resp


@<TRIPOS>ATOM
      1 C1          1.1340   -0.9740    5.1870 c3        1 MOL     -0.240830
      2 C2          2.1420   -0.0850    4.4790 c         1 MOL      0.688216
      3 O1          1.9140    1.0480    4.1540 o         1 MOL     -0.545896
      4 H1          0.3810   -1.3090    4.4730 hc        1 MOL      0.055530
      5 H2          1.6450   -1.8400    5.6080 hc        1 MOL      0.055530
      6 H3          0.6510   -0.4110    5.9860 hc        1 MOL      0.055530
      7 N1          3.4070   -0.5820    4.4970 n         1 MOL     -0.624712
      8 C3          4.6060    0.1510    4.1010 c3        1 MOL      0.221269
      9 C4          5.3120   -0.4780    2.8560 c         1 MOL      0.487016
     10 O2          6.1370    0.1950    2.1780 o         1 MOL     -0.585962
     11 C5          5.5620    0.1860    5.2670 c3        1 MOL     -0.083150
     12 C6          6.5260    1.3940    5.2580 c         1 MOL      0.682266
     13 O3          6.0710    2.5080    5.2070 o         1 MOL     -0.724533
     14 O4          7.7550    1.1770    5.5110 o         1 MOL     -0.724533
     15 H4          3.5450   -1.4310    5.0270 hn        1 MOL      0.292461
     16 H5          4.2740    1.1470    3.8110 h1        1 MOL      0.056401
     17 H6          6.1860   -0.7030    5.3020 hc        1 MOL     -0.022988
     18 H7          5.0000    0.1180    6.1970 hc        1 MOL     -0.022988
     19 N2          4.9260   -1.6880    2.4500 n         1 MOL     -0.331886
     20 C7          5.3680   -2.5430    1.3610 c3        1 MOL     -0.019120
     21 C8          5.4050   -1.8920    0.0010 c         1 MOL      0.370986
     22 O5          4.4530   -1.8530   -0.7570 o         1 MOL     -0.519293
     23 C9          6.6500   -3.2450    1.7690 c3        1 MOL     -0.460481
     24 H8          4.2450   -2.1060    3.0590 hn        1 MOL      0.237505
     25 H9          4.6690   -3.3770    1.2680 h1        1 MOL      0.195200
     26 H10         7.4370   -2.5050    1.9050 hc        1 MOL      0.123544
     27 H11         6.4760   -3.9030    2.6310 hc        1 MOL      0.123544
     28 H12         7.0250   -3.7660    0.8950 hc        1 MOL      0.123544
     29 N3          6.5740   -1.2720   -0.2810 n         1 MOL      0.005228
     30 C10         6.9140   -0.6760   -1.6490 c3        1 MOL     -0.250048
     31 C11         6.7060    0.8210   -1.7550 c         1 MOL      0.485140
     32 O6          7.0220    1.3720   -2.7870 o         1 MOL     -0.557119
     33 C12         8.3360   -1.0080   -1.9740 c3        1 MOL     -0.098058
     34 C13         8.6070   -2.5600   -2.0510 c         1 MOL      0.589161
     35 O7          7.9060   -3.3840   -2.6530 o         1 MOL     -0.691165
     36 O8          9.5650   -2.9000   -1.3160 o         1 MOL     -0.691165
     37 H13         7.3000   -1.2400    0.4230 hn        1 MOL      0.213039
     38 H14         6.2460   -1.1130   -2.3850 h1        1 MOL      0.114597
     39 H15         8.9230   -0.5640   -1.1750 hc        1 MOL      0.033203
     40 H16         8.7710   -0.5110   -2.8470 hc        1 MOL      0.033203
     41 N4          6.3760    1.4840   -0.6990 n         1 MOL     -0.187106
     42 C14         6.1690    3.0090   -0.6580 c3        1 MOL     -0.196806
     43 C15         4.8110    3.3710   -1.3690 c         1 MOL      0.637654
     44 O9          4.8640    4.3520   -2.0610 o         1 MOL     -0.567272
     45 H17         6.0930    0.9900    0.1410 hn        1 MOL      0.210197
     46 H18         6.9950    3.5710   -1.0790 h1        1 MOL      0.114144
     47 H19         6.0550    3.2090    0.4030 h1        1 MOL      0.114144
     48 N5          3.7550    2.5140   -1.4950 n         1 MOL     -0.394590
     49 C16         2.5430    2.9840   -2.2820 c3        1 MOL     -0.106896
     50 C17         1.8940    4.2750   -1.7350 c         1 MOL      0.507315
     51 O10         1.8620    4.4620   -0.5080 o         1 MOL     -0.495955
     52 C18         1.5020    1.8270   -2.3730 c3        1 MOL     -0.163320
     53 C19         1.9910    0.5690   -3.0510 c         1 MOL      0.660020
     54 N6          2.0490    0.6610   -4.3700 n         1 MOL     -0.773728
     55 O11         2.4720   -0.3700   -2.4350 o         1 MOL     -0.569805
     56 H20         3.7760    1.7200   -0.8670 hn        1 MOL      0.273691
     57 H21         2.9060    3.0910   -3.3010 h1        1 MOL      0.089696
     58 H22         0.6740    2.2400   -2.9620 hc        1 MOL      0.086779
     59 H23         1.0510    1.5120   -1.4330 hc        1 MOL      0.086779
     60 H24         1.6800    1.5040   -4.7890 hn        1 MOL      0.359370
     61 H25         2.6660    0.0250   -4.8660 hn        1 MOL      0.359370
     62 N7          1.4030    5.1460   -2.5840 n         1 MOL     -0.286657
     63 C20         0.7220    6.3640   -2.1960 c3        1 MOL     -0.322701
     64 C21        -0.7760    6.2890   -2.0450 c         1 MOL      0.670158
     65 O12        -1.3950    5.5880   -2.8510 o         1 MOL     -0.523440
     66 H26         1.4900    5.0400   -3.5910 hn        1 MOL      0.262315
     67 H27         0.8760    7.0800   -2.9970 h1        1 MOL      0.145995
     68 H28         1.3210    6.6520   -1.3310 h1        1 MOL      0.145995
     69 N8         -1.3410    6.9930   -1.0450 n         1 MOL     -0.564908
     70 C22        -2.8500    7.0600   -0.8420 c3        1 MOL     -0.121002
     71 C23        -3.5420    5.7400   -0.3110 c         1 MOL      0.349882
     72 O13        -4.8120    5.5880   -0.3730 o         1 MOL     -0.541114
     73 C24        -3.1710    8.2420    0.0750 c3        1 MOL      0.432386
     74 C25        -2.5750    7.9150    1.4440 c3        1 MOL     -0.346188
     75 O14        -2.6800    9.4140   -0.4920 oh        1 MOL     -0.591509
     76 H29        -0.7820    7.6370   -0.5040 hn        1 MOL      0.282504
     77 H30        -3.2500    7.2230   -1.8380 h1        1 MOL      0.136841
     78 H31        -4.2620    8.2990    0.1190 h1        1 MOL      0.038671
     79 H32        -1.7580    9.2400   -0.2830 ho        1 MOL      0.361744
     80 H33        -1.9200    8.7140    1.7950 hc        1 MOL      0.084380
     81 H34        -3.3280    7.8470    2.2370 hc        1 MOL      0.084380
     82 H35        -1.8840    7.0660    1.4830 hc        1 MOL      0.084380
     83 N9         -2.7540    4.7840    0.2380 n         1 MOL     -0.038710
     84 C26        -3.3020    3.4430    0.6300 c3        1 MOL     -0.293922
     85 C27        -2.5190    2.3870   -0.1610 c         1 MOL      0.405690
     86 O15        -1.6510    2.6840   -0.9990 o         1 MOL     -0.426759
     87 C28        -3.2140    3.1700    2.1350 c3        1 MOL     -0.024092
     88 C29        -1.8700    3.5740    2.8350 c3        1 MOL     -0.163000
     89 C30        -4.3490    3.9370    2.7430 c3        1 MOL     -0.289707
     90 C31        -0.7070    2.7520    2.4370 c3        1 MOL     -0.098715
     91 H36        -1.7560    4.9640    0.2150 hn        1 MOL      0.246535
     92 H37        -4.3630    3.4090    0.3840 h1        1 MOL      0.270346
     93 H38        -3.4660    2.1430    2.4140 hc        1 MOL      0.113361
     94 H39        -1.8880    3.3770    3.9070 hc        1 MOL      0.067932
     95 H40        -1.6760    4.6360    2.7150 hc        1 MOL      0.067932
     96 H41        -5.3110    3.4390    2.5580 hc        1 MOL      0.068457
     97 H42        -4.2390    4.0110    3.8240 hc        1 MOL      0.068457
     98 H43        -4.5080    4.8890    2.2330 hc        1 MOL      0.068457
     99 H44         0.1790    2.9470    3.0460 hc        1 MOL      0.066196
    100 H45        -0.8870    1.6730    2.4340 hc        1 MOL      0.066196
    101 H46        -0.4550    3.0690    1.4340 hc        1 MOL      0.066196
    102 N10        -2.9250    1.1180   -0.0670 n         1 MOL     -0.378050
    103 C32        -2.2740    0.0140   -0.7460 c3        1 MOL     -0.139646
    104 C33        -3.2640   -1.1020   -1.1060 c         1 MOL      0.567358
    105 O16        -3.0760   -2.3250   -1.0940 o         1 MOL     -0.500147
    106 C34        -1.0070   -0.4880    0.0490 c3        1 MOL      0.128454
    107 C35         0.0720   -1.2460   -0.6590 c         1 MOL      0.690208
    108 O17         1.0900   -1.5010    0.0270 o         1 MOL     -0.764359
    109 O18        -0.1550   -1.6810   -1.8090 o         1 MOL     -0.764359
    110 H47        -3.8080    0.9260    0.3880 hn        1 MOL      0.238680
    111 H48        -1.7970    0.4440   -1.6350 h1        1 MOL      0.059109
    112 H49        -1.3820   -0.9560    0.9620 hc        1 MOL     -0.002273
    113 H50        -0.4600    0.3890    0.3920 hc        1 MOL     -0.002273
    114 N11        -4.4920   -0.6700   -1.3890 n         1 MOL     -0.361798
    115 C36        -5.5980   -1.4810   -1.8860 c3        1 MOL      0.117487
    116 C37        -5.9740   -2.4840   -0.8360 c         1 MOL      0.090335
    117 O19        -6.1160   -2.0460    0.3560 o         1 MOL     -0.368130
    118 C38        -6.8380   -0.6140   -2.1130 c3        1 MOL     -0.240801
    119 C39        -7.2200    0.4700   -1.0750 ca        1 MOL      0.091920
    120 C40        -8.1260    0.2020   -0.0240 ca        1 MOL     -0.143497
    121 C41        -6.6070    1.7590   -1.0560 ca        1 MOL     -0.143497
    122 C42        -8.5550    1.1310    0.9050 ca        1 MOL     -0.136043
    123 C43        -7.0720    2.7190   -0.1510 ca        1 MOL     -0.136043
    124 C44        -8.0130    2.4290    0.8870 ca        1 MOL     -0.098996
    125 H51        -4.6030    0.3300   -1.4780 hn        1 MOL      0.256182
    126 H52        -5.3010   -1.9930   -2.8110 h1        1 MOL      0.049085
    127 H53        -7.7380   -1.1710   -2.3790 hc        1 MOL      0.096074
    128 H54        -6.7460   -0.0220   -3.0180 hc        1 MOL      0.096074
    129 H55        -8.4720   -0.7940    0.1800 ha        1 MOL      0.112088
    130 H56        -5.9410    2.0400   -1.8610 ha        1 MOL      0.112088
    131 H57        -9.2230    0.8240    1.6970 ha        1 MOL      0.121216
    132 H58        -6.6780    3.7210   -0.1750 ha        1 MOL      0.121216
    133 H59        -8.3550    3.1010    1.6650 ha        1 MOL      0.109509
    134 N12        -6.1780   -3.7780   -1.1750 n         1 MOL      0.137349
    135 C45        -6.5610   -4.8130   -0.2600 c3        1 MOL      0.045998
    136 C46        -5.6790   -4.9160    1.0280 c         1 MOL      0.186353
    137 O20        -6.1510   -5.4240    2.0070 o         1 MOL     -0.471406
    138 C47        -6.4750   -6.1090   -1.0580 c3        1 MOL     -0.043871
    139 C48        -7.0480   -5.6950   -2.4430 c3        1 MOL     -0.031931
    140 C49        -6.3610   -4.3110   -2.5750 c3        1 MOL     -0.163167
    141 H60        -7.5720   -4.6190    0.0900 h1        1 MOL      0.044508
    142 H61        -5.4410   -6.4590   -1.1590 hc        1 MOL      0.042556
    143 H62        -7.1490   -6.8660   -0.6580 hc        1 MOL      0.042556
    144 H63        -6.8300   -6.5040   -3.1380 hc        1 MOL      0.036668
    145 H64        -8.1290   -5.5040   -2.4280 hc        1 MOL      0.036668
    146 H65        -5.3470   -4.4050   -2.9650 h1        1 MOL      0.070445
    147 H66        -6.9730   -3.6520   -3.1970 h1        1 MOL      0.070445
    148 N13        -4.4370   -4.4120    1.0180 n         1 MOL      0.132100
    149 C50        -3.5060   -4.5330    2.1050 c3        1 MOL     -0.520647
    150 C51        -3.9200   -3.6530    3.2490 c         1 MOL      0.507596
    151 O21        -3.3990   -3.7870    4.3830 o         1 MOL     -0.577637
    152 C52        -2.0690   -4.2110    1.6450 c3        1 MOL      0.292786
    153 C53        -1.5160   -5.2430    0.6160 c3        1 MOL     -0.151663
    154 C54        -0.0600   -4.9000    0.3100 c         1 MOL      0.618618
    155 O22         0.1660   -4.5890   -0.9220 o         1 MOL     -0.709735
    156 O23         0.7670   -4.7710    1.2420 o         1 MOL     -0.709735
    157 H67        -4.0450   -4.0860    0.1450 hn        1 MOL      0.149873
    158 H68        -3.5190   -5.5840    2.3890 h1        1 MOL      0.182919
    159 H69        -1.4520   -4.2930    2.5410 hc        1 MOL      0.028497
    160 H70        -1.9970   -3.2070    1.2410 hc        1 MOL      0.028497
    161 H71        -2.1280   -5.2680   -0.2910 hc        1 MOL     -0.016412
    162 H72        -1.5670   -6.2850    0.9180 hc        1 MOL     -0.016412
    163 N14        -4.7660   -2.7220    2.9730 n         1 MOL     -0.103572
    164 C55        -5.4220   -1.7590    3.8740 c3        1 MOL     -0.228888
    165 H73        -6.5030   -1.8260    3.7530 h1        1 MOL      0.095248
    166 H74        -5.1580   -1.9880    4.9060 h1        1 MOL      0.095248
    167 H75        -5.0920   -0.7490    3.6300 h1        1 MOL      0.095248
    168 H76        -5.0440   -2.6390    2.0010 hn        1 MOL      0.123401
    169 Ca1         1.9620   -2.9910   -1.9640 Ca        1 MOL      1.709065
    170 O24         3.7850   -2.9050   -3.8470 oh        1 MOL     -0.762178
    171 H77         4.5900   -3.3830   -4.0340 ho        1 MOL      0.378643
    172 H78         3.7850   -2.1740   -4.4660 ho        1 MOL      0.378643
    173 O25         3.3710   -4.7240   -0.5080 oh        1 MOL     -0.762178
    174 H79         3.5110   -5.4840   -1.0670 ho        1 MOL      0.378643
    175 H80         3.2600   -5.0910    0.3680 ho        1 MOL      0.378643
    176 O26         2.2840   -5.4150   -3.1550 oh        1 MOL     -0.762178
    177 H81         2.3970   -6.1730   -2.5800 ho        1 MOL      0.378643
    178 H82         1.7060   -5.7210   -3.8480 ho        1 MOL      0.378643
    179 O27         0.6720   -3.3810   -4.5250 oh        1 MOL     -0.762178
    180 H83         0.8470   -4.2410   -4.8990 ho        1 MOL      0.378643
    181 H84        -0.2400   -3.2100   -4.7300 ho        1 MOL      0.378643
@<TRIPOS>BOND
     1    1    2 1   
     2    1    4 1   
     3    1    5 1   
     4    1    6 1   
     5    2    3 2   
     6    2    7 1   
     7    7    8 1   
     8    7   15 1   
     9    8    9 1   
    10    8   11 1   
    11    8   16 1   
    12    9   10 2   
    13    9   19 1   
    14   11   12 1   
    15   11   17 1   
    16   11   18 1   
    17   12   13 1   
    18   12   14 1   
    19   19   20 1   
    20   19   24 1   
    21   20   21 1   
    22   20   23 1   
    23   20   25 1   
    24   21   22 2   
    25   21   29 1   
    26   23   26 1   
    27   23   27 1   
    28   23   28 1   
    29   29   30 1   
    30   29   37 1   
    31   30   31 1   
    32   30   33 1   
    33   30   38 1   
    34   31   32 2   
    35   31   41 1   
    36   33   34 1   
    37   33   39 1   
    38   33   40 1   
    39   34   35 1   
    40   34   36 1   
    41   41   42 1   
    42   41   45 1   
    43   42   43 1   
    44   42   46 1   
    45   42   47 1   
    46   43   44 2   
    47   43   48 1   
    48   48   49 1   
    49   48   56 1   
    50   49   50 1   
    51   49   52 1   
    52   49   57 1   
    53   50   51 2   
    54   50   62 1   
    55   52   53 1   
    56   52   58 1   
    57   52   59 1   
    58   53   54 1   
    59   53   55 2   
    60   54   60 1   
    61   54   61 1   
    62   62   63 1   
    63   62   66 1   
    64   63   64 1   
    65   63   67 1   
    66   63   68 1   
    67   64   65 2   
    68   64   69 1   
    69   69   70 1   
    70   69   76 1   
    71   70   71 1   
    72   70   73 1   
    73   70   77 1   
    74   71   72 2   
    75   71   83 1   
    76   73   74 1   
    77   73   75 1   
    78   73   78 1   
    79   74   80 1   
    80   74   81 1   
    81   74   82 1   
    82   75   79 1   
    83   83   84 1   
    84   83   91 1   
    85   84   85 1   
    86   84   87 1   
    87   84   92 1   
    88   85   86 2   
    89   85  102 1   
    90   87   88 1   
    91   87   89 1   
    92   87   93 1   
    93   88   90 1   
    94   88   94 1   
    95   88   95 1   
    96   89   96 1   
    97   89   97 1   
    98   89   98 1   
    99   90   99 1   
   100   90  100 1   
   101   90  101 1   
   102  102  103 1   
   103  102  110 1   
   104  103  104 1   
   105  103  106 1   
   106  103  111 1   
   107  104  105 2   
   108  104  114 1   
   109  106  107 1   
   110  106  112 1   
   111  106  113 1   
   112  107  108 1   
   113  107  109 1   
   114  114  115 1   
   115  114  125 1   
   116  115  116 1   
   117  115  118 1   
   118  115  126 1   
   119  116  117 2   
   120  116  134 1   
   121  118  119 1   
   122  118  127 1   
   123  118  128 1   
   124  119  120 ar  
   125  119  121 ar  
   126  120  122 ar  
   127  120  129 1   
   128  121  123 ar  
   129  121  130 1   
   130  122  124 ar  
   131  122  131 1   
   132  123  124 ar  
   133  123  132 1   
   134  124  133 1   
   135  134  135 1   
   136  134  140 1   
   137  135  136 1   
   138  135  138 1   
   139  135  141 1   
   140  136  137 2   
   141  136  148 1   
   142  138  139 1   
   143  138  142 1   
   144  138  143 1   
   145  139  140 1   
   146  139  144 1   
   147  139  145 1   
   148  140  146 1   
   149  140  147 1   
   150  148  149 1   
   151  148  157 1   
   152  149  150 1   
   153  149  152 1   
   154  149  158 1   
   155  150  151 2   
   156  150  163 1   
   157  152  153 1   
   158  152  159 1   
   159  152  160 1   
   160  153  154 1   
   161  153  161 1   
   162  153  162 1   
   163  154  155 1   
   164  154  156 1   
   165  163  164 1   
   166  163  168 1   
   167  164  165 1   
   168  164  166 1   
   169  164  167 1   
   170  170  171 1   
   171  170  172 1   
   172  173  174 1   
   173  173  175 1   
   174  176  177 1   
   175  176  178 1   
   176  179  180 1   
   177  179  181 1   
@<TRIPOS>SUBSTRUCTURE
     1 MOL         1 TEMP              0 ****  ****    0 ROOT
