@<TRIPOS>MOLECULE
MOL
  179   176     1     0     0
SMALL
resp


@<TRIPOS>ATOM
      1 C1          2.9660   -5.3930    5.8570 c3        1 MOL     -0.380946
      2 C2          2.7680   -5.0460    4.4170 c         1 MOL      0.759700
      3 O1          1.9580   -5.7000    3.7780 o         1 MOL     -0.589406
      4 H1          3.6660   -6.2240    5.9360 hc        1 MOL      0.094648
      5 H2          3.3660   -4.5290    6.3870 hc        1 MOL      0.094648
      6 H3          2.0120   -5.6800    6.2960 hc        1 MOL      0.094648
      7 N1          3.1960   -3.8330    4.0580 n         1 MOL     -0.515368
      8 C3          3.0860   -3.1970    2.7230 c3        1 MOL     -0.150017
      9 C4          3.8250   -3.9970    1.6350 c         1 MOL      0.581868
     10 O2          4.9990   -4.2120    1.8210 o         1 MOL     -0.519664
     11 C5          3.6770   -1.7800    2.7480 c3        1 MOL      0.328367
     12 C6          3.5080   -0.9450    1.5340 c         1 MOL      0.193373
     13 O3          3.7930    0.2820    1.6240 o         1 MOL     -0.598487
     14 O4          3.3080   -1.4650    0.3760 o         1 MOL     -0.598487
     15 H4          3.8060   -3.4190    4.7580 hn        1 MOL      0.304694
     16 H5          2.0610   -3.1030    2.3600 h1        1 MOL      0.062988
     17 H6          4.7480   -1.7450    2.9250 hc        1 MOL     -0.032319
     18 H7          3.2340   -1.3080    3.6310 hc        1 MOL     -0.032319
     19 N2          3.1310   -4.5240    0.5940 n         1 MOL     -0.401863
     20 C7          3.6470   -5.3960   -0.4940 c3        1 MOL      0.038851
     21 C8          4.6120   -4.6720   -1.5070 c         1 MOL      0.501076
     22 O5          5.3450   -5.3830   -2.1750 o         1 MOL     -0.592148
     23 C9          2.3750   -5.8840   -1.2820 c3        1 MOL     -0.227220
     24 C10         2.6820   -6.9800   -2.3380 c3        1 MOL      0.113905
     25 C11         1.4980   -7.5230   -3.2610 c3        1 MOL      0.006420
     26 C12         1.9160   -8.6760   -4.1200 c3        1 MOL      0.042100
     27 N3          2.9920   -8.3010   -5.0600 n4        1 MOL     -0.183086
     28 H8          2.2230   -4.1350    0.4260 hn        1 MOL      0.238524
     29 H9          4.1770   -6.2140   -0.0170 h1        1 MOL      0.118959
     30 H10         1.9490   -5.0360   -1.8250 hc        1 MOL      0.074232
     31 H11         1.6910   -6.2800   -0.5360 hc        1 MOL      0.074232
     32 H12         3.1030   -7.8430   -1.8280 hc        1 MOL      0.005031
     33 H13         3.4000   -6.5600   -3.0380 hc        1 MOL      0.005031
     34 H14         1.1380   -6.7570   -3.9370 hc        1 MOL      0.020165
     35 H15         0.6520   -7.8760   -2.6640 hc        1 MOL      0.020165
     36 H16         1.1140   -9.0730   -4.7380 hx        1 MOL      0.058170
     37 H17         2.2150   -9.5620   -3.5430 hx        1 MOL      0.058170
     38 H18         2.7240   -7.5210   -5.6570 hn        1 MOL      0.221376
     39 H19         3.8770   -8.2550   -4.5870 hn        1 MOL      0.221376
     40 H20         3.2350   -9.0540   -5.6930 hn        1 MOL      0.221376
     41 N4          4.6840   -3.3350   -1.5700 n         1 MOL     -0.299495
     42 C13         5.8150   -2.6080   -2.2240 c3        1 MOL      0.093421
     43 C14         6.7070   -1.7890   -1.2490 c         1 MOL      0.266666
     44 O6          7.8120   -1.3820   -1.6740 o         1 MOL     -0.500217
     45 C15         5.2380   -1.6760   -3.3060 c3        1 MOL     -0.353848
     46 C16         4.2230   -0.6950   -2.7360 c         1 MOL      0.767028
     47 O7          4.6040    0.3130   -2.1140 o         1 MOL     -0.753976
     48 O8          2.9990   -0.9000   -2.8110 o         1 MOL     -0.753976
     49 H21         4.0470   -2.8100   -0.9920 hn        1 MOL      0.208091
     50 H22         6.4450   -3.3410   -2.7200 h1        1 MOL      0.123419
     51 H23         4.8460   -2.3100   -4.1080 hc        1 MOL      0.109615
     52 H24         6.0960   -1.1840   -3.7730 hc        1 MOL      0.109615
     53 N5          6.2370   -1.4960   -0.0570 n         1 MOL      0.142954
     54 C17         6.8660   -0.7770    1.0220 c3        1 MOL     -0.285721
     55 C18         6.9030    0.7790    0.9350 c         1 MOL      0.663599
     56 O9          7.3730    1.4150    1.8670 o         1 MOL     -0.582627
     57 H25         5.3640   -1.8990    0.2330 hn        1 MOL     -0.017354
     58 H26         7.8990   -1.1200    1.0920 h1        1 MOL      0.120229
     59 H27         6.4420   -1.1170    1.9670 h1        1 MOL      0.120229
     60 N6          6.4940    1.3490   -0.2260 n         1 MOL     -0.244693
     61 C19         6.5100    2.8220   -0.5170 c3        1 MOL     -0.095367
     62 C20         5.1480    3.4820   -0.7010 c         1 MOL      0.707939
     63 O10         4.0680    2.8490   -0.6270 o         1 MOL     -0.571332
     64 C21         7.3730    3.0680   -1.7100 c3        1 MOL     -0.389332
     65 C22         8.7860    2.5240   -1.4470 c         1 MOL      0.628576
     66 N7          9.4680    3.2320   -0.6410 n         1 MOL     -0.684948
     67 O11         9.2190    1.5210   -2.0280 o         1 MOL     -0.518457
     68 H28         5.9540    0.7630   -0.8520 hn        1 MOL      0.276947
     69 H29         7.0280    3.3790    0.2550 h1        1 MOL      0.055730
     70 H30         7.4420    4.1280   -1.9620 hc        1 MOL      0.117562
     71 H31         6.9580    2.5390   -2.5630 hc        1 MOL      0.117562
     72 H32         9.1620    4.1250   -0.2790 hn        1 MOL      0.336594
     73 H33        10.4090    3.0660   -0.3100 hn        1 MOL      0.336594
     74 N8          5.1080    4.7920   -0.7830 n         1 MOL     -0.527631
     75 C23         3.9580    5.7280   -0.8690 c3        1 MOL      0.023399
     76 C24         2.9660    5.4660    0.2410 c         1 MOL      0.478915
     77 O12         3.3420    5.4320    1.3940 o         1 MOL     -0.462106
     78 H34         5.9980    5.2660   -0.7170 hn        1 MOL      0.326644
     79 H35         3.4910    5.7430   -1.8500 h1        1 MOL      0.060286
     80 H36         4.3130    6.7550   -0.8020 h1        1 MOL      0.060286
     81 N9          1.6540    5.4560   -0.1150 n         1 MOL     -0.261475
     82 C25         0.5140    4.9900    0.7010 c3        1 MOL     -0.310612
     83 C26         0.6780    3.5740    1.2820 c         1 MOL      0.784749
     84 O13         1.4990    2.7890    0.8140 o         1 MOL     -0.530034
     85 C27        -0.7790    5.0600   -0.1470 c3        1 MOL      0.046041
     86 C28        -1.1260    6.3530   -0.8760 ca        1 MOL      0.060981
     87 C29        -1.5940    7.3840   -0.0180 ca        1 MOL     -0.110482
     88 C30        -1.1750    6.4370   -2.2600 ca        1 MOL     -0.110482
     89 C31        -2.1540    8.5100   -0.6410 ca        1 MOL     -0.303632
     90 C32        -1.6990    7.5950   -2.8740 ca        1 MOL     -0.303632
     91 C33        -2.2450    8.5980   -2.0580 ca        1 MOL      0.381856
     92 O14        -2.7200    9.7900   -2.5860 oh        1 MOL     -0.485632
     93 H37         1.2980    5.9070   -0.9560 hn        1 MOL      0.176535
     94 H38         0.3320    5.5800    1.6010 h1        1 MOL      0.133613
     95 H39        -1.6330    4.8110    0.4770 hc        1 MOL     -0.004194
     96 H40        -0.6760    4.2360   -0.8570 hc        1 MOL     -0.004194
     97 H41        -1.3860    7.2900    1.0370 ha        1 MOL      0.116118
     98 H42        -0.7790    5.6010   -2.8250 ha        1 MOL      0.116118
     99 H43        -2.5330    9.3120   -0.0180 ha        1 MOL      0.177709
    100 H44        -1.7230    7.6650   -3.9520 ha        1 MOL      0.177709
    101 H45        -2.8890   10.4230   -1.8900 ho        1 MOL      0.362431
    102 N10         0.0250    3.1580    2.3770 n         1 MOL     -0.631751
    103 C34        -0.0630    1.7740    2.9280 c3        1 MOL      0.124844
    104 C35        -0.3220    0.6430    1.9120 c         1 MOL      0.133388
    105 O15         0.5730    0.2560    1.2050 o         1 MOL     -0.424082
    106 C36         1.1380    1.4580    3.8610 c3        1 MOL      0.288913
    107 C37         0.8900    0.0370    4.4820 c3        1 MOL     -0.108641
    108 C38         1.3670    2.5490    4.8970 c3        1 MOL     -0.286550
    109 C39        -0.3800   -0.2160    5.3530 c3        1 MOL     -0.300453
    110 H46        -0.5290    3.7740    2.9630 hn        1 MOL      0.320650
    111 H47        -0.9280    1.7560    3.5890 h1        1 MOL      0.041571
    112 H48         2.0250    1.4640    3.2280 hc        1 MOL      0.032838
    113 H49         1.7040   -0.2980    5.1210 hc        1 MOL      0.081894
    114 H50         0.8400   -0.7060    3.6890 hc        1 MOL      0.081894
    115 H51         2.1410    2.1600    5.5570 hc        1 MOL      0.065507
    116 H52         1.5920    3.4500    4.3210 hc        1 MOL      0.065507
    117 H53         0.3950    2.7150    5.3640 hc        1 MOL      0.065507
    118 H54        -1.2700   -0.0290    4.7540 hc        1 MOL      0.078012
    119 H55        -0.3460   -1.2730    5.6130 hc        1 MOL      0.078012
    120 H56        -0.3650    0.4470    6.2190 hc        1 MOL      0.078012
    121 N11        -1.5300    0.0710    1.7750 n         1 MOL     -0.157724
    122 C40        -1.8370   -1.1050    0.9710 c3        1 MOL     -0.099897
    123 C41        -3.2200   -1.0800    0.3670 c         1 MOL      0.573574
    124 O16        -3.5540   -2.0800   -0.3580 o         1 MOL     -0.531504
    125 C42        -1.7110   -2.4080    1.8580 c3        1 MOL      0.128532
    126 O17        -2.7870   -2.4350    2.7890 oh        1 MOL     -0.644480
    127 H57        -2.2790    0.4530    2.3370 hn        1 MOL      0.266326
    128 H58        -1.1500   -1.1150    0.1320 h1        1 MOL      0.082934
    129 H59        -0.8100   -2.4630    2.4660 h1        1 MOL      0.068058
    130 H60        -1.7920   -3.3070    1.2430 h1        1 MOL      0.068058
    131 H61        -3.0630   -3.3340    2.9840 ho        1 MOL      0.441540
    132 N12        -4.0540   -0.0140    0.5270 n         1 MOL     -0.572216
    133 C43        -5.4530   -0.1120    0.2120 c3        1 MOL      0.242793
    134 C44        -5.6830    0.3830   -1.2240 c         1 MOL      0.640849
    135 O18        -4.8270    1.0290   -1.7530 o         1 MOL     -0.584031
    136 C45        -6.2930    0.5790    1.2730 c3        1 MOL     -0.209793
    137 H62        -3.6870    0.6550    1.1860 hn        1 MOL      0.260331
    138 H63        -5.7810   -1.1510    0.1520 h1        1 MOL      0.051994
    139 H64        -5.7680    1.1390    2.0520 hc        1 MOL      0.069724
    140 H65        -6.9920    1.2800    0.8160 hc        1 MOL      0.069724
    141 H66        -6.9380   -0.1120    1.8220 hc        1 MOL      0.069724
    142 N13        -6.7910    0.1340   -1.9070 n         1 MOL     -0.692238
    143 C46        -7.9810   -0.5760   -1.3500 c3        1 MOL      0.356262
    144 C47        -9.3160   -0.0170   -1.9250 c         1 MOL      0.371993
    145 O19        -9.3310    0.4850   -3.0270 o         1 MOL     -0.504237
    146 C48        -7.9200   -2.0700   -1.7730 c3        1 MOL     -0.304294
    147 H67        -6.8060    0.5980   -2.8060 hn        1 MOL      0.363428
    148 H68        -8.0330   -0.5430   -0.2620 h1        1 MOL     -0.044342
    149 H69        -8.0480   -2.1400   -2.8470 hc        1 MOL      0.093365
    150 H70        -7.0380   -2.6010   -1.4060 hc        1 MOL      0.093365
    151 H71        -8.7810   -2.5530   -1.3070 hc        1 MOL      0.093365
    152 N14       -10.4110   -0.0500   -1.1410 n         1 MOL     -0.372871
    153 C49       -10.5300   -0.8140    0.1770 c3        1 MOL     -0.076920
    154 C50       -10.2100    0.0860    1.3800 c         1 MOL      0.331873
    155 O20        -9.8270   -0.4710    2.3920 o         1 MOL     -0.493521
    156 C51       -11.9440   -1.5110    0.2910 c3        1 MOL      0.081669
    157 C52       -12.0050   -2.5150   -0.8910 c3        1 MOL     -0.272987
    158 C53       -13.3130   -3.3220   -1.0660 c         1 MOL      0.715550
    159 O21       -14.3850   -2.7660   -1.3870 o         1 MOL     -0.651234
    160 O22       -13.3190   -4.5370   -0.9110 o         1 MOL     -0.651234
    161 H72       -11.2100    0.3880   -1.5760 hn        1 MOL      0.313945
    162 H73        -9.9200   -1.7230    0.1520 h1        1 MOL      0.150979
    163 H74       -12.7070   -0.7320    0.2160 hc        1 MOL      0.026562
    164 H75       -12.0410   -2.0840    1.2070 hc        1 MOL      0.026562
    165 H76       -11.2590   -3.2820   -0.7230 hc        1 MOL      0.043471
    166 H77       -11.8490   -1.8780   -1.7600 hc        1 MOL      0.043471
    167 N15       -10.0650    1.4040    1.1500 n         1 MOL     -0.124789
    168 C54        -9.5730    2.2740    2.1610 c3        1 MOL     -0.240946
    169 H78       -10.3540    2.9820    2.4420 h1        1 MOL      0.098508
    170 H79        -9.2810    1.6900    3.0340 h1        1 MOL      0.098508
    171 H80        -8.7090    2.8200    1.7820 h1        1 MOL      0.098508
    172 H81       -10.3930    1.8100    0.2830 hn        1 MOL      0.190225
    173 Ca1         2.3160    0.7480   -0.7870 Ca        1 MOL      1.754909
    174 O23         0.2280   -0.4150   -1.8550 oh        1 MOL     -0.878399
    175 H82         0.0080   -1.3290   -1.6840 ho        1 MOL      0.441808
    176 H83        -0.4320   -0.1130   -2.4790 ho        1 MOL      0.441808
    177 O24         1.5490    2.7080   -2.4580 oh        1 MOL     -0.878399
    178 H84         1.4880    3.6550   -2.5000 ho        1 MOL      0.441808
    179 H85         0.7400    2.3950   -2.8700 ho        1 MOL      0.441808
@<TRIPOS>BOND
     1    1    2 1   
     2    1    4 1   
     3    1    5 1   
     4    1    6 1   
     5    2    3 2   
     6    2    7 1   
     7    7    8 1   
     8    7   15 1   
     9    8    9 1   
    10    8   11 1   
    11    8   16 1   
    12    9   10 2   
    13    9   19 1   
    14   11   12 1   
    15   11   17 1   
    16   11   18 1   
    17   12   13 1   
    18   12   14 1   
    19   19   20 1   
    20   19   28 1   
    21   20   21 1   
    22   20   23 1   
    23   20   29 1   
    24   21   22 2   
    25   21   41 1   
    26   23   24 1   
    27   23   30 1   
    28   23   31 1   
    29   24   25 1   
    30   24   32 1   
    31   24   33 1   
    32   25   26 1   
    33   25   34 1   
    34   25   35 1   
    35   26   27 1   
    36   26   36 1   
    37   26   37 1   
    38   27   38 1   
    39   27   39 1   
    40   27   40 1   
    41   41   42 1   
    42   41   49 1   
    43   42   43 1   
    44   42   45 1   
    45   42   50 1   
    46   43   44 2   
    47   43   53 1   
    48   45   46 1   
    49   45   51 1   
    50   45   52 1   
    51   46   47 1   
    52   46   48 1   
    53   53   54 1   
    54   53   57 1   
    55   54   55 1   
    56   54   58 1   
    57   54   59 1   
    58   55   56 2   
    59   55   60 1   
    60   60   61 1   
    61   60   68 1   
    62   61   62 1   
    63   61   64 1   
    64   61   69 1   
    65   62   63 2   
    66   62   74 1   
    67   64   65 1   
    68   64   70 1   
    69   64   71 1   
    70   65   66 1   
    71   65   67 2   
    72   66   72 1   
    73   66   73 1   
    74   74   75 1   
    75   74   78 1   
    76   75   76 1   
    77   75   79 1   
    78   75   80 1   
    79   76   77 2   
    80   76   81 1   
    81   81   82 1   
    82   81   93 1   
    83   82   83 1   
    84   82   85 1   
    85   82   94 1   
    86   83   84 2   
    87   83  102 1   
    88   85   86 1   
    89   85   95 1   
    90   85   96 1   
    91   86   87 ar  
    92   86   88 ar  
    93   87   89 ar  
    94   87   97 1   
    95   88   90 ar  
    96   88   98 1   
    97   89   91 ar  
    98   89   99 1   
    99   90   91 ar  
   100   90  100 1   
   101   91   92 1   
   102   92  101 1   
   103  102  103 1   
   104  102  110 1   
   105  103  104 1   
   106  103  106 1   
   107  103  111 1   
   108  104  105 2   
   109  104  121 1   
   110  106  107 1   
   111  106  108 1   
   112  106  112 1   
   113  107  109 1   
   114  107  113 1   
   115  107  114 1   
   116  108  115 1   
   117  108  116 1   
   118  108  117 1   
   119  109  118 1   
   120  109  119 1   
   121  109  120 1   
   122  121  122 1   
   123  121  127 1   
   124  122  123 1   
   125  122  125 1   
   126  122  128 1   
   127  123  124 2   
   128  123  132 1   
   129  125  126 1   
   130  125  129 1   
   131  125  130 1   
   132  126  131 1   
   133  132  133 1   
   134  132  137 1   
   135  133  134 1   
   136  133  136 1   
   137  133  138 1   
   138  134  135 2   
   139  134  142 1   
   140  136  139 1   
   141  136  140 1   
   142  136  141 1   
   143  142  143 1   
   144  142  147 1   
   145  143  144 1   
   146  143  146 1   
   147  143  148 1   
   148  144  145 2   
   149  144  152 1   
   150  146  149 1   
   151  146  150 1   
   152  146  151 1   
   153  152  153 1   
   154  152  161 1   
   155  153  154 1   
   156  153  156 1   
   157  153  162 1   
   158  154  155 2   
   159  154  167 1   
   160  156  157 1   
   161  156  163 1   
   162  156  164 1   
   163  157  158 1   
   164  157  165 1   
   165  157  166 1   
   166  158  159 1   
   167  158  160 1   
   168  167  168 1   
   169  167  172 1   
   170  168  169 1   
   171  168  170 1   
   172  168  171 1   
   173  174  175 1   
   174  174  176 1   
   175  177  178 1   
   176  177  179 1   
@<TRIPOS>SUBSTRUCTURE
     1 MOL         1 TEMP              0 ****  ****    0 ROOT
