@<TRIPOS>MOLECULE
MOL
  181   177     1     0     0
SMALL
resp


@<TRIPOS>ATOM
      1 C1          9.8320   -5.7430    3.9610 c3        1 MOL     -0.215752
      2 C2          9.9850   -5.8550    2.4140 c         1 MOL      0.620243
      3 O1          9.9040   -6.9790    1.9830 o         1 MOL     -0.567233
      4 H1          8.8400   -6.0880    4.2520 hc        1 MOL      0.056567
      5 H2         10.5870   -6.3590    4.4470 hc        1 MOL      0.056567
      6 H3          9.9580   -4.7040    4.2650 hc        1 MOL      0.056567
      7 N1         10.1560   -4.8020    1.5730 n         1 MOL     -0.455628
      8 C3         10.4000   -3.4230    2.0170 c3        1 MOL      0.162022
      9 C4         11.2720   -2.6200    1.0450 c         1 MOL      0.336505
     10 O2         11.3990   -2.8590   -0.1630 o         1 MOL     -0.414589
     11 C5          9.1150   -2.6130    2.4160 c3        1 MOL     -0.098911
     12 C6          8.3140   -2.0760    1.2060 c         1 MOL      0.560260
     13 O3          7.2240   -2.5880    0.9190 o         1 MOL     -0.620906
     14 O4          8.8900   -1.1320    0.5550 o         1 MOL     -0.620906
     15 H4         10.3390   -5.0360    0.6100 hn        1 MOL      0.275064
     16 H5         10.8670   -3.5280    3.0040 h1        1 MOL      0.015824
     17 H6          9.4280   -1.7660    3.0250 hc        1 MOL      0.010511
     18 H7          8.4180   -3.2910    2.9210 hc        1 MOL      0.010511
     19 N2         11.8760   -1.5780    1.6040 n         1 MOL     -0.500382
     20 C7         12.8130   -0.6160    1.0150 c3        1 MOL      0.246692
     21 C8         12.2990    0.3680   -0.0940 c         1 MOL      0.309845
     22 O5         13.0950    1.1530   -0.6460 o         1 MOL     -0.536287
     23 C9         14.0940   -1.4140    0.5710 c3        1 MOL     -0.236967
     24 H8         11.8000   -1.5630    2.6090 hn        1 MOL      0.293273
     25 H9         13.1000    0.0410    1.8370 h1        1 MOL      0.026800
     26 H10        14.9370   -0.7260    0.5470 hc        1 MOL      0.070927
     27 H11        14.3910   -2.1470    1.3260 hc        1 MOL      0.070927
     28 H12        13.8450   -1.9270   -0.3590 hc        1 MOL      0.070927
     29 N3         11.0220    0.5280   -0.3490 n         1 MOL      0.044059
     30 C10        10.4710    1.6910   -1.1500 c3        1 MOL     -0.174890
     31 C11         9.0950    2.1000   -0.6450 c         1 MOL      0.427609
     32 O6          8.2400    1.2590   -0.3350 o         1 MOL     -0.486935
     33 C12        10.4850    1.4740   -2.6700 c3        1 MOL      0.116292
     34 C13         9.9020    0.1650   -3.1980 c         1 MOL      0.560201
     35 O7         10.6620   -0.6570   -3.7430 o         1 MOL     -0.659152
     36 O8          8.6820    0.0780   -3.0750 o         1 MOL     -0.659152
     37 H13        10.3590   -0.0880    0.1080 hn        1 MOL      0.080546
     38 H14        11.1730    2.4940   -0.9800 h1        1 MOL      0.051556
     39 H15        11.5440    1.6180   -2.8930 hc        1 MOL     -0.018632
     40 H16         9.9120    2.3000   -3.0920 hc        1 MOL     -0.018632
     41 N4          8.8430    3.4170   -0.4250 n         1 MOL     -0.341696
     42 C14         7.8320    4.0430    0.4630 c3        1 MOL     -0.441731
     43 C15         6.4130    3.7330    0.0500 c         1 MOL      0.747366
     44 O9          6.0220    3.8350   -1.1260 o         1 MOL     -0.550378
     45 H17         9.3250    4.0760   -1.0200 hn        1 MOL      0.314521
     46 H18         7.9190    5.1220    0.4240 h1        1 MOL      0.194866
     47 H19         8.0240    3.6440    1.4570 h1        1 MOL      0.194866
     48 N5          5.4680    3.3890    0.9660 n         1 MOL     -0.670107
     49 C16         4.1270    2.8690    0.7410 c3        1 MOL      0.284595
     50 C17         2.9700    3.9530    0.6890 c         1 MOL      0.609491
     51 O10         3.1410    5.1230    1.0670 o         1 MOL     -0.567329
     52 C18         3.8250    1.6980    1.6250 c3        1 MOL     -0.306157
     53 C19         4.8740    0.6260    1.8030 c         1 MOL      0.708501
     54 N6          4.8840   -0.2190    2.7840 n         1 MOL     -0.731537
     55 O11         5.6120    0.4050    0.8540 o         1 MOL     -0.564869
     56 H20         5.6220    3.6480    1.9230 hn        1 MOL      0.313527
     57 H21         4.0940    2.5010   -0.2850 h1        1 MOL     -0.024551
     58 H22         2.9140    1.1750    1.3230 hc        1 MOL      0.081106
     59 H23         3.6240    2.0940    2.6210 hc        1 MOL      0.081106
     60 H24         4.1960   -0.1800    3.5140 hn        1 MOL      0.352682
     61 H25         5.6350   -0.8910    2.9040 hn        1 MOL      0.352682
     62 N7          1.8220    3.6140    0.1690 n         1 MOL     -0.586644
     63 C20         0.6540    4.4930    0.1320 c3        1 MOL      0.204232
     64 C21        -0.3150    4.0580   -0.9500 c         1 MOL      0.457376
     65 O12         0.0570    3.3610   -1.8540 o         1 MOL     -0.539918
     66 H26         1.7740    2.7090   -0.2890 hn        1 MOL      0.346486
     67 H27         0.8640    5.5460   -0.0580 h1        1 MOL      0.049788
     68 H28         0.1270    4.4950    1.0890 h1        1 MOL      0.049788
     69 N8         -1.6380    4.2630   -0.9420 n         1 MOL     -0.210674
     70 C22        -2.4720    5.1070   -0.0950 c3        1 MOL     -0.414577
     71 C23        -3.5190    4.3870    0.7660 c         1 MOL      0.650876
     72 O13        -4.2820    4.9080    1.5970 o         1 MOL     -0.532896
     73 C24        -3.2100    6.2320   -0.8730 c3        1 MOL      0.476004
     74 C25        -2.2150    7.1240   -1.6140 c3        1 MOL     -0.427575
     75 O14        -4.1580    5.8750   -1.6830 oh        1 MOL     -0.562375
     76 H29        -2.1170    4.0480   -1.8010 hn        1 MOL      0.239838
     77 H30        -1.7830    5.5510    0.6280 h1        1 MOL      0.104211
     78 H31        -3.7180    6.8020   -0.0980 h1        1 MOL      0.021497
     79 H32        -3.7260    5.6710   -2.5160 ho        1 MOL      0.385141
     80 H33        -1.8940    6.7440   -2.5920 hc        1 MOL      0.093436
     81 H34        -2.6730    8.0730   -1.8820 hc        1 MOL      0.093436
     82 H35        -1.3590    7.4140   -1.0020 hc        1 MOL      0.093436
     83 N9         -3.5960    3.0320    0.5690 n         1 MOL     -0.433071
     84 C26        -4.7880    2.2190    0.8470 c3        1 MOL      0.115947
     85 C27        -4.4150    1.0670    1.7480 c         1 MOL      0.547960
     86 O15        -3.2080    0.7090    1.7160 o         1 MOL     -0.603498
     87 C28        -5.3510    1.6520   -0.4810 c3        1 MOL     -0.211936
     88 C29        -4.3000    0.9840   -1.3320 c3        1 MOL     -0.059467
     89 C30        -6.2760    2.6450   -1.1810 c3        1 MOL     -0.079207
     90 C31        -4.8440    0.4010   -2.7130 c3        1 MOL     -0.058157
     91 H36        -2.9000    2.6370   -0.0420 hn        1 MOL      0.232064
     92 H37        -5.5360    2.7860    1.4050 h1        1 MOL      0.116793
     93 H38        -6.0890    0.9020   -0.1720 hc        1 MOL      0.112508
     94 H39        -3.8180    0.1430   -0.8370 hc        1 MOL      0.071648
     95 H40        -3.4260    1.5690   -1.5830 hc        1 MOL      0.071648
     96 H41        -6.8440    3.1800   -0.4210 hc        1 MOL      0.014837
     97 H42        -5.7870    3.4480   -1.7390 hc        1 MOL      0.014837
     98 H43        -7.0830    2.2260   -1.7800 hc        1 MOL      0.014837
     99 H44        -5.8930    0.1290   -2.5970 hc        1 MOL      0.001562
    100 H45        -4.7480    1.1640   -3.4870 hc        1 MOL      0.001562
    101 H46        -4.2880   -0.4740   -3.0290 hc        1 MOL      0.001562
    102 N10        -5.2790    0.4490    2.5040 n         1 MOL     -0.393473
    103 C32        -6.7250    0.8160    2.7280 c3        1 MOL      0.324238
    104 C33        -7.7300   -0.1390    2.0100 c         1 MOL      0.372282
    105 O16        -7.4750   -1.3520    1.8210 o         1 MOL     -0.515909
    106 C34        -6.9590    0.8480    4.3020 c3        1 MOL     -0.276739
    107 C35        -6.1780    1.9430    5.0070 c         1 MOL      0.704049
    108 O17        -6.1130    3.0700    4.5620 o         1 MOL     -0.715308
    109 O18        -5.4190    1.5630    5.9460 o         1 MOL     -0.715308
    110 H47        -4.9220   -0.4170    2.8950 hn        1 MOL      0.273493
    111 H48        -6.8460    1.8320    2.3520 h1        1 MOL     -0.043438
    112 H49        -6.7830   -0.1000    4.8260 hc        1 MOL      0.026924
    113 H50        -8.0060    1.1070    4.5000 hc        1 MOL      0.026924
    114 N11        -8.8270    0.4680    1.6960 n         1 MOL     -0.492092
    115 C36        -9.8250   -0.1980    0.9070 c3        1 MOL      0.343187
    116 C37        -9.6550    0.1550   -0.6310 c         1 MOL      0.145222
    117 O19        -9.4400    1.3730   -0.9140 o         1 MOL     -0.478925
    118 C38       -11.1480    0.2590    1.4470 c3        1 MOL     -0.101366
    119 C39       -12.3240   -0.5090    0.9580 ca        1 MOL      0.047176
    120 C40       -12.9630   -0.1250   -0.2480 ca        1 MOL     -0.178604
    121 C41       -12.7020   -1.6790    1.6730 ca        1 MOL     -0.178604
    122 C42       -14.0690   -0.8620   -0.6560 ca        1 MOL     -0.118545
    123 C43       -13.7900   -2.4310    1.1750 ca        1 MOL     -0.118545
    124 C44       -14.3590   -2.0670   -0.0340 ca        1 MOL     -0.073590
    125 H51        -8.9410    1.4200    2.0050 hn        1 MOL      0.309146
    126 H52        -9.7410   -1.2870    0.9730 h1        1 MOL      0.031865
    127 H53       -11.2270    1.3040    1.1330 hc        1 MOL      0.041368
    128 H54       -11.1810    0.2920    2.5360 hc        1 MOL      0.041368
    129 H55       -12.6820    0.8130   -0.7090 ha        1 MOL      0.142317
    130 H56       -12.1690   -2.0330    2.5390 ha        1 MOL      0.142317
    131 H57       -14.6960   -0.5110   -1.4580 ha        1 MOL      0.108097
    132 H58       -14.1050   -3.3490    1.6510 ha        1 MOL      0.108097
    133 H59       -15.2200   -2.5950   -0.4210 ha        1 MOL      0.071557
    134 N12        -9.7740   -0.7830   -1.6140 n         1 MOL      0.143700
    135 C45       -10.2630   -2.1390   -1.3660 c3        1 MOL      0.020112
    136 C46        -9.2530   -3.0420   -0.6570 c         1 MOL      0.430115
    137 O20        -9.5620   -3.8350    0.2210 o         1 MOL     -0.549773
    138 C47       -10.7370   -2.6900   -2.7520 c3        1 MOL     -0.164905
    139 C48       -10.5270   -1.5240   -3.7580 c3        1 MOL      0.001295
    140 C49        -9.6720   -0.4720   -3.0390 c3        1 MOL     -0.129462
    141 H60       -11.1670   -2.1820   -0.7730 h1        1 MOL      0.051275
    142 H61       -10.1610   -3.5190   -3.1460 hc        1 MOL      0.062078
    143 H62       -11.7610   -3.0220   -2.5800 hc        1 MOL      0.062078
    144 H63       -10.0550   -1.8020   -4.6960 hc        1 MOL      0.018185
    145 H64       -11.5100   -1.0860   -3.9380 hc        1 MOL      0.018185
    146 H65        -8.6200   -0.6390   -3.2830 h1        1 MOL      0.075350
    147 H66       -10.0160    0.5480   -3.1980 h1        1 MOL      0.075350
    148 N13        -8.0030   -2.8090   -1.0550 n         1 MOL     -0.234749
    149 C50        -6.7900   -3.4080   -0.7100 c3        1 MOL      0.004650
    150 C51        -6.8620   -4.7440   -1.3010 c         1 MOL      0.398229
    151 O21        -6.7160   -4.8840   -2.5390 o         1 MOL     -0.575175
    152 C52        -5.6810   -2.5810   -1.3090 c3        1 MOL      0.202787
    153 C53        -4.3200   -3.1300   -0.9570 c3        1 MOL     -0.013401
    154 C54        -3.1740   -2.5960   -1.9370 c         1 MOL      0.671350
    155 O22        -2.2900   -1.8250   -1.4790 o         1 MOL     -0.701142
    156 O23        -3.0910   -3.1140   -3.1100 o         1 MOL     -0.701142
    157 H67        -7.9440   -1.9720   -1.6170 hn        1 MOL      0.222495
    158 H68        -6.6290   -3.4840    0.3720 h1        1 MOL      0.087210
    159 H69        -5.8240   -1.5670   -0.9430 hc        1 MOL     -0.057935
    160 H70        -5.7000   -2.6300   -2.3910 hc        1 MOL     -0.057935
    161 H71        -4.3540   -4.2150   -0.9310 hc        1 MOL     -0.058805
    162 H72        -4.1110   -2.8030    0.0630 hc        1 MOL     -0.058805
    163 N14        -7.0160   -5.8550   -0.6550 n         1 MOL     -0.275813
    164 C55        -7.5150   -5.8800    0.7950 c3        1 MOL     -0.170289
    165 H73        -8.5840   -6.0940    0.8070 h1        1 MOL      0.085336
    166 H74        -6.9850   -6.6550    1.3490 h1        1 MOL      0.085336
    167 H75        -7.3340   -4.9110    1.2590 h1        1 MOL      0.085336
    168 H76        -6.8200   -6.6960   -1.1710 hn        1 MOL      0.265323
    169 Ca1         6.9570   -0.8130   -1.2360 Ca        1 MOL      1.647115
    170 O24         5.8410   -1.4900   -3.8190 oh        1 MOL     -0.782022
    171 H77         6.6410   -1.7800   -4.2470 ho        1 MOL      0.394967
    172 H78         5.2070   -2.1890   -3.9900 ho        1 MOL      0.394967
    173 O25         7.7540   -3.3150   -2.0730 oh        1 MOL     -0.782022
    174 H79         8.4250   -3.4950   -2.7340 ho        1 MOL      0.394967
    175 H80         7.4070   -4.1720   -1.8350 ho        1 MOL      0.394967
    176 O26         4.3940   -2.0950   -0.6110 oh        1 MOL     -0.782022
    177 H81         4.0250   -1.8480    0.2370 ho        1 MOL      0.394967
    178 H82         3.6640   -2.0060   -1.2220 ho        1 MOL      0.394967
    179 O27         5.3560    1.1930   -2.0390 oh        1 MOL     -0.782022
    180 H83         5.2020    1.8670   -1.3650 ho        1 MOL      0.394967
    181 H84         5.6800    1.6800   -2.7930 ho        1 MOL      0.394967
@<TRIPOS>BOND
     1    1    2 1   
     2    1    4 1   
     3    1    5 1   
     4    1    6 1   
     5    2    3 2   
     6    2    7 1   
     7    7    8 1   
     8    7   15 1   
     9    8    9 1   
    10    8   11 1   
    11    8   16 1   
    12    9   10 2   
    13    9   19 1   
    14   11   12 1   
    15   11   17 1   
    16   11   18 1   
    17   12   13 1   
    18   12   14 1   
    19   19   20 1   
    20   19   24 1   
    21   20   21 1   
    22   20   23 1   
    23   20   25 1   
    24   21   22 2   
    25   21   29 1   
    26   23   26 1   
    27   23   27 1   
    28   23   28 1   
    29   29   30 1   
    30   29   37 1   
    31   30   31 1   
    32   30   33 1   
    33   30   38 1   
    34   31   32 2   
    35   31   41 1   
    36   33   34 1   
    37   33   39 1   
    38   33   40 1   
    39   34   35 1   
    40   34   36 1   
    41   41   42 1   
    42   41   45 1   
    43   42   43 1   
    44   42   46 1   
    45   42   47 1   
    46   43   44 2   
    47   43   48 1   
    48   48   49 1   
    49   48   56 1   
    50   49   50 1   
    51   49   52 1   
    52   49   57 1   
    53   50   51 2   
    54   50   62 1   
    55   52   53 1   
    56   52   58 1   
    57   52   59 1   
    58   53   54 1   
    59   53   55 2   
    60   54   60 1   
    61   54   61 1   
    62   62   63 1   
    63   62   66 1   
    64   63   64 1   
    65   63   67 1   
    66   63   68 1   
    67   64   65 2   
    68   64   69 1   
    69   69   70 1   
    70   69   76 1   
    71   70   71 1   
    72   70   73 1   
    73   70   77 1   
    74   71   72 2   
    75   71   83 1   
    76   73   74 1   
    77   73   75 1   
    78   73   78 1   
    79   74   80 1   
    80   74   81 1   
    81   74   82 1   
    82   75   79 1   
    83   83   84 1   
    84   83   91 1   
    85   84   85 1   
    86   84   87 1   
    87   84   92 1   
    88   85   86 2   
    89   85  102 1   
    90   87   88 1   
    91   87   89 1   
    92   87   93 1   
    93   88   90 1   
    94   88   94 1   
    95   88   95 1   
    96   89   96 1   
    97   89   97 1   
    98   89   98 1   
    99   90   99 1   
   100   90  100 1   
   101   90  101 1   
   102  102  103 1   
   103  102  110 1   
   104  103  104 1   
   105  103  106 1   
   106  103  111 1   
   107  104  105 2   
   108  104  114 1   
   109  106  107 1   
   110  106  112 1   
   111  106  113 1   
   112  107  108 1   
   113  107  109 1   
   114  114  115 1   
   115  114  125 1   
   116  115  116 1   
   117  115  118 1   
   118  115  126 1   
   119  116  117 2   
   120  116  134 1   
   121  118  119 1   
   122  118  127 1   
   123  118  128 1   
   124  119  120 ar  
   125  119  121 ar  
   126  120  122 ar  
   127  120  129 1   
   128  121  123 ar  
   129  121  130 1   
   130  122  124 ar  
   131  122  131 1   
   132  123  124 ar  
   133  123  132 1   
   134  124  133 1   
   135  134  135 1   
   136  134  140 1   
   137  135  136 1   
   138  135  138 1   
   139  135  141 1   
   140  136  137 2   
   141  136  148 1   
   142  138  139 1   
   143  138  142 1   
   144  138  143 1   
   145  139  140 1   
   146  139  144 1   
   147  139  145 1   
   148  140  146 1   
   149  140  147 1   
   150  148  149 1   
   151  148  157 1   
   152  149  150 1   
   153  149  152 1   
   154  149  158 1   
   155  150  151 2   
   156  150  163 1   
   157  152  153 1   
   158  152  159 1   
   159  152  160 1   
   160  153  154 1   
   161  153  161 1   
   162  153  162 1   
   163  154  155 1   
   164  154  156 1   
   165  163  164 1   
   166  163  168 1   
   167  164  165 1   
   168  164  166 1   
   169  164  167 1   
   170  170  171 1   
   171  170  172 1   
   172  173  174 1   
   173  173  175 1   
   174  176  177 1   
   175  176  178 1   
   176  179  180 1   
   177  179  181 1   
@<TRIPOS>SUBSTRUCTURE
     1 MOL         1 TEMP              0 ****  ****    0 ROOT
