@<TRIPOS>MOLECULE
MOL
  178   175     1     0     0
SMALL
resp


@<TRIPOS>ATOM
      1 C1          1.0990   -5.5630    3.5640 c3        1 MOL     -0.366501
      2 C2          2.4640   -5.2830    2.9440 c         1 MOL      0.749571
      3 O1          2.6930   -5.8290    1.8520 o         1 MOL     -0.625983
      4 H1          0.8250   -4.7420    4.2260 hc        1 MOL      0.090622
      5 H2          0.3530   -5.6560    2.7750 hc        1 MOL      0.090622
      6 H3          1.1420   -6.4890    4.1350 hc        1 MOL      0.090622
      7 N1          3.3110   -4.4770    3.5410 n         1 MOL     -0.733547
      8 C3          4.7030   -4.2140    3.0160 c3        1 MOL      0.350911
      9 C4          4.6680   -3.5460    1.6470 c         1 MOL      0.666701
     10 O2          4.0610   -2.5210    1.4290 o         1 MOL     -0.590415
     11 C5          5.4180   -3.3910    3.9910 c3        1 MOL     -0.307158
     12 C6          6.9560   -3.2420    3.6640 c         1 MOL      0.761563
     13 O3          7.5850   -2.2460    4.0770 o         1 MOL     -0.730403
     14 O4          7.4380   -4.1290    2.9830 o         1 MOL     -0.730403
     15 H4          2.9760   -3.9980    4.3640 hn        1 MOL      0.343023
     16 H5          5.3090   -5.1230    2.9960 h1        1 MOL      0.019843
     17 H6          5.3740   -3.9330    4.9340 hc        1 MOL      0.022189
     18 H7          4.9670   -2.3970    4.0060 hc        1 MOL      0.022189
     19 N2          5.2920   -4.2160    0.6380 n         1 MOL     -0.526730
     20 C7          5.3440   -3.9180   -0.7920 c3        1 MOL      0.441834
     21 C8          4.0150   -4.1750   -1.4820 c         1 MOL      0.314617
     22 O5          3.2990   -5.0890   -1.0930 o         1 MOL     -0.489098
     23 C9          6.4980   -4.7440   -1.3470 c3        1 MOL     -0.301408
     24 H8          5.6600   -5.1430    0.7680 hn        1 MOL      0.243615
     25 H9          5.6770   -2.8840   -0.9240 h1        1 MOL     -0.006344
     26 H10         6.2000   -5.7560   -1.6010 hc        1 MOL      0.076052
     27 H11         6.8800   -4.3270   -2.2790 hc        1 MOL      0.076052
     28 H12         7.3040   -4.7690   -0.6090 hc        1 MOL      0.076052
     29 N3          3.5360   -3.4950   -2.5670 n         1 MOL     -0.336351
     30 C10         4.2240   -2.4220   -3.2580 c3        1 MOL     -0.018039
     31 C11         4.2320   -1.0510   -2.5420 c         1 MOL      0.561906
     32 O6          3.4210   -0.6470   -1.6800 o         1 MOL     -0.579468
     33 C12         3.5560   -2.3710   -4.6450 c3        1 MOL     -0.190053
     34 C13         2.0090   -2.2410   -4.6490 c         1 MOL      0.708255
     35 O7          1.3570   -2.5340   -5.6950 o         1 MOL     -0.680160
     36 O8          1.4060   -1.8110   -3.6000 o         1 MOL     -0.680160
     37 H13         2.6570   -3.7700   -2.9760 hn        1 MOL      0.260425
     38 H14         5.2540   -2.7540   -3.3940 h1        1 MOL      0.060495
     39 H15         3.8730   -3.2440   -5.2230 hc        1 MOL      0.039564
     40 H16         3.9310   -1.5200   -5.2200 hc        1 MOL      0.039564
     41 N4          5.2270   -0.2470   -2.9760 n         1 MOL     -0.549383
     42 C14         5.3980    1.1190   -2.4240 c3        1 MOL      0.062351
     43 C15         6.3840    1.1690   -1.1820 c         1 MOL      0.584571
     44 O9          6.9690    0.1560   -0.7410 o         1 MOL     -0.511567
     45 H17         5.7350   -0.5440   -3.8000 hn        1 MOL      0.304462
     46 H18         4.4360    1.5940   -2.2430 h1        1 MOL      0.085762
     47 H19         5.8330    1.7370   -3.2150 h1        1 MOL      0.085762
     48 N5          6.5680    2.3230   -0.5130 n         1 MOL     -0.616609
     49 C16         5.7820    3.6010   -0.6800 c3        1 MOL      0.053616
     50 C17         5.2700    4.0270    0.7770 c         1 MOL      0.609037
     51 O10         5.1730    5.2420    1.0440 o         1 MOL     -0.536294
     52 C18         6.7480    4.6610   -1.3630 c3        1 MOL     -0.279385
     53 C19         7.1710    4.3030   -2.8330 c         1 MOL      0.681659
     54 N6          6.2560    4.1760   -3.7510 n         1 MOL     -0.798923
     55 O11         8.3280    3.9850   -3.0140 o         1 MOL     -0.564516
     56 H20         7.3530    2.4400    0.1000 hn        1 MOL      0.361855
     57 H21         4.8790    3.4080   -1.2630 h1        1 MOL      0.054397
     58 H22         7.6660    4.8080   -0.7930 hc        1 MOL      0.094602
     59 H23         6.2480    5.6210   -1.4720 hc        1 MOL      0.094602
     60 H24         5.2940    4.2670   -3.4680 hn        1 MOL      0.372734
     61 H25         6.5470    3.8400   -4.6650 hn        1 MOL      0.372734
     62 N7          4.8710    3.0780    1.6070 n         1 MOL     -0.391184
     63 C20         4.4070    3.4520    2.9390 c3        1 MOL     -0.293398
     64 C21         3.0850    4.1750    3.1950 c         1 MOL      0.479346
     65 O12         2.7970    4.6830    4.3020 o         1 MOL     -0.562876
     66 H26         4.7280    2.1250    1.3170 hn        1 MOL      0.330027
     67 H27         5.1380    4.1680    3.3120 h1        1 MOL      0.159064
     68 H28         4.4270    2.5610    3.5660 h1        1 MOL      0.159064
     69 N8          2.2560    4.2310    2.2190 n         1 MOL     -0.149878
     70 C22         0.9020    4.8110    2.2690 c3        1 MOL     -0.037903
     71 C23        -0.1510    3.7820    1.9000 c         1 MOL      0.412600
     72 O13         0.1940    2.7700    1.3320 o         1 MOL     -0.444493
     73 C24         0.7960    5.9650    1.2610 c3        1 MOL      0.301107
     74 C25         1.8580    6.9930    1.4490 c3        1 MOL     -0.415270
     75 O14         1.0270    5.5870   -0.0630 oh        1 MOL     -0.570795
     76 H29         2.5960    3.7230    1.4090 hn        1 MOL      0.203264
     77 H30         0.8030    5.1570    3.3000 h1        1 MOL      0.092904
     78 H31        -0.1460    6.5160    1.2540 h1        1 MOL      0.007444
     79 H32         0.6880    6.2960   -0.6160 ho        1 MOL      0.407797
     80 H33         1.7940    7.3540    2.4680 hc        1 MOL      0.097463
     81 H34         2.8260    6.5280    1.2290 hc        1 MOL      0.097463
     82 H35         1.8490    7.8400    0.7640 hc        1 MOL      0.097463
     83 N9         -1.4250    4.0760    2.1750 n         1 MOL     -0.442421
     84 C26        -2.5960    3.4160    1.5670 c3        1 MOL     -0.169287
     85 C27        -2.5680    3.6830   -0.0130 c         1 MOL      0.507153
     86 O15        -2.7740    4.7950   -0.5150 o         1 MOL     -0.583398
     87 C28        -3.9030    3.8290    2.2700 c3        1 MOL      0.239806
     88 C29        -5.0370    2.9730    1.6990 c3        1 MOL      0.076379
     89 C30        -3.7540    3.7710    3.8240 c3        1 MOL     -0.223785
     90 C31        -6.3840    2.9970    2.3450 c3        1 MOL     -0.222052
     91 H36        -1.5830    4.8890    2.7520 hn        1 MOL      0.280521
     92 H37        -2.6130    2.3440    1.7150 h1        1 MOL      0.233756
     93 H38        -4.0380    4.8760    2.0060 hc        1 MOL     -0.044348
     94 H39        -4.7260    1.9310    1.7480 hc        1 MOL     -0.010080
     95 H40        -5.1900    3.0910    0.6220 hc        1 MOL     -0.010080
     96 H41        -3.6340    2.7360    4.1620 hc        1 MOL      0.045175
     97 H42        -2.9240    4.3960    4.1420 hc        1 MOL      0.045175
     98 H43        -4.6120    4.2630    4.2760 hc        1 MOL      0.045175
     99 H44        -6.6770    4.0410    2.2480 hc        1 MOL      0.035343
    100 H45        -7.0360    2.3680    1.7370 hc        1 MOL      0.035343
    101 H46        -6.4050    2.5500    3.3380 hc        1 MOL      0.035343
    102 N10        -2.4280    2.6110   -0.7960 n         1 MOL     -0.161742
    103 C32        -2.6420    2.6930   -2.2420 c3        1 MOL     -0.019693
    104 C33        -3.7140    1.7200   -2.7380 c         1 MOL      0.469799
    105 O16        -4.1000    1.8360   -3.9440 o         1 MOL     -0.556664
    106 C34        -1.2840    2.5540   -2.9990 c3        1 MOL     -0.084808
    107 C35        -0.4550    1.3580   -2.5290 c         1 MOL      0.701260
    108 O17         0.6800    1.5050   -1.9850 o         1 MOL     -0.743248
    109 O18        -0.8950    0.2030   -2.7050 o         1 MOL     -0.743248
    110 H47        -2.3700    1.6870   -0.4050 hn        1 MOL      0.239415
    111 H48        -3.1330    3.6390   -2.4790 h1        1 MOL      0.078330
    112 H49        -0.6880    3.4290   -2.7340 hc        1 MOL      0.022466
    113 H50        -1.4710    2.5910   -4.0760 hc        1 MOL      0.022466
    114 N11        -4.2610    0.8930   -1.8610 n         1 MOL     -0.413388
    115 C36        -5.5760    0.1760   -2.0520 c3        1 MOL      0.236014
    116 C37        -5.7160   -1.0620   -1.1750 c         1 MOL      0.356780
    117 O19        -6.5260   -1.0430   -0.2430 o         1 MOL     -0.508616
    118 C38        -6.6750    1.1470   -1.7680 c3        1 MOL     -0.145418
    119 C39        -8.0810    0.6580   -2.0510 ca        1 MOL      0.024794
    120 C40        -8.9490    0.4560   -0.9890 ca        1 MOL     -0.091609
    121 C41        -8.5120    0.1620   -3.3370 ca        1 MOL     -0.091609
    122 C42       -10.2600   -0.1270   -1.1010 ca        1 MOL     -0.178633
    123 C43        -9.8100   -0.3410   -3.4800 ca        1 MOL     -0.178633
    124 C44       -10.6780   -0.5130   -2.3770 ca        1 MOL     -0.074644
    125 H51        -3.9290    0.8210   -0.9070 hn        1 MOL      0.189270
    126 H52        -5.6210   -0.2180   -3.0640 h1        1 MOL      0.041808
    127 H53        -6.6570    2.0360   -2.4200 hc        1 MOL      0.076927
    128 H54        -6.5100    1.5010   -0.7490 hc        1 MOL      0.076927
    129 H55        -8.6570    0.8430   -0.0250 ha        1 MOL      0.090830
    130 H56        -7.8180    0.1680   -4.1780 ha        1 MOL      0.090830
    131 H57       -10.9000   -0.2810   -0.2490 ha        1 MOL      0.114358
    132 H58       -10.0230   -0.7200   -4.4690 ha        1 MOL      0.114358
    133 H59       -11.6780   -0.9060   -2.5100 ha        1 MOL      0.082477
    134 N12        -4.9090   -2.0830   -1.3430 n         1 MOL     -0.108582
    135 C45        -4.8940   -3.3170   -0.5430 c3        1 MOL      0.084009
    136 C46        -4.8310   -3.2540    1.0060 c         1 MOL      0.057691
    137 O20        -5.2300   -4.2380    1.6170 o         1 MOL     -0.475948
    138 C47        -3.7850   -4.2180   -1.1560 c3        1 MOL     -0.227395
    139 C48        -3.6820   -3.8100   -2.5680 c3        1 MOL     -0.162531
    140 C49        -3.8490   -2.3010   -2.3510 c3        1 MOL     -0.095534
    141 H60        -5.8610   -3.7610   -0.7770 h1        1 MOL      0.089038
    142 H61        -2.8650   -4.0430   -0.6110 hc        1 MOL      0.127123
    143 H62        -4.1420   -5.2440   -1.2270 hc        1 MOL      0.127123
    144 H63        -2.6990   -4.1180   -2.9250 hc        1 MOL      0.069283
    145 H64        -4.4390   -4.2290   -3.2350 hc        1 MOL      0.069283
    146 H65        -2.8750   -1.9930   -1.9590 h1        1 MOL      0.109586
    147 H66        -4.0550   -1.7650   -3.2720 h1        1 MOL      0.109586
    148 N13        -4.4300   -2.1810    1.5770 n         1 MOL      0.156081
    149 C50        -4.2470   -1.8900    3.0190 c3        1 MOL     -0.218282
    150 C51        -5.5740   -1.9490    3.7600 c         1 MOL      0.390504
    151 O21        -5.7000   -2.5090    4.8790 o         1 MOL     -0.531367
    152 C52        -3.5160   -0.6570    3.4250 c3        1 MOL      0.162984
    153 C53        -2.0710   -0.5770    2.8620 c3        1 MOL     -0.197771
    154 C54        -2.0560   -0.3200    1.3010 c         1 MOL      0.583457
    155 O22        -1.1130   -0.8000    0.5740 o         1 MOL     -0.705079
    156 O23        -3.1010    0.1810    0.7790 o         1 MOL     -0.705079
    157 H67        -4.2240   -1.4720    0.8910 hn        1 MOL      0.259171
    158 H68        -3.7840   -2.7180    3.5610 h1        1 MOL      0.115070
    159 H69        -3.3290   -0.5630    4.4930 hc        1 MOL     -0.018015
    160 H70        -4.1050    0.2070    3.0940 hc        1 MOL     -0.018015
    161 H71        -1.5970   -1.5320    3.0730 hc        1 MOL      0.046482
    162 H72        -1.5830    0.2610    3.3730 hc        1 MOL      0.046482
    163 N14        -6.4870   -1.2040    3.1220 n         1 MOL     -0.086832
    164 C55        -7.8930   -1.2480    3.6050 c3        1 MOL     -0.275675
    165 H73        -8.1040   -0.3510    4.1880 h1        1 MOL      0.105775
    166 H74        -8.5700   -1.2930    2.7520 h1        1 MOL      0.105775
    167 H75        -8.0350   -2.1290    4.2310 h1        1 MOL      0.105775
    168 H76        -6.2310   -0.6540    2.3190 hn        1 MOL      0.190304
    169 Ca1         0.8410   -1.0880   -1.0690 Ca        1 MOL      1.741479
    170 O24         1.7540   -3.1390    0.3050 oh        1 MOL     -0.850898
    171 H77         2.5580   -3.0270    0.8280 ho        1 MOL      0.410187
    172 H78         1.8710   -3.9860   -0.1270 ho        1 MOL      0.410187
    173 O25        -0.3960   -3.3770   -1.9300 oh        1 MOL     -0.850898
    174 H79        -0.5030   -3.1680   -2.8560 ho        1 MOL      0.410187
    175 H80        -0.8750   -4.2060   -1.8150 ho        1 MOL      0.410187
    176 O26         1.8560    0.6010    0.7730 oh        1 MOL     -0.850898
    177 H81         2.6600    0.3490    1.2200 ho        1 MOL      0.410187
    178 H82         1.4780    1.2900    1.3160 ho        1 MOL      0.410187
@<TRIPOS>BOND
     1    1    2 1   
     2    1    4 1   
     3    1    5 1   
     4    1    6 1   
     5    2    3 2   
     6    2    7 1   
     7    7    8 1   
     8    7   15 1   
     9    8    9 1   
    10    8   11 1   
    11    8   16 1   
    12    9   10 2   
    13    9   19 1   
    14   11   12 1   
    15   11   17 1   
    16   11   18 1   
    17   12   13 1   
    18   12   14 1   
    19   19   20 1   
    20   19   24 1   
    21   20   21 1   
    22   20   23 1   
    23   20   25 1   
    24   21   22 2   
    25   21   29 1   
    26   23   26 1   
    27   23   27 1   
    28   23   28 1   
    29   29   30 1   
    30   29   37 1   
    31   30   31 1   
    32   30   33 1   
    33   30   38 1   
    34   31   32 2   
    35   31   41 1   
    36   33   34 1   
    37   33   39 1   
    38   33   40 1   
    39   34   35 1   
    40   34   36 1   
    41   41   42 1   
    42   41   45 1   
    43   42   43 1   
    44   42   46 1   
    45   42   47 1   
    46   43   44 2   
    47   43   48 1   
    48   48   49 1   
    49   48   56 1   
    50   49   50 1   
    51   49   52 1   
    52   49   57 1   
    53   50   51 2   
    54   50   62 1   
    55   52   53 1   
    56   52   58 1   
    57   52   59 1   
    58   53   54 1   
    59   53   55 2   
    60   54   60 1   
    61   54   61 1   
    62   62   63 1   
    63   62   66 1   
    64   63   64 1   
    65   63   67 1   
    66   63   68 1   
    67   64   65 2   
    68   64   69 1   
    69   69   70 1   
    70   69   76 1   
    71   70   71 1   
    72   70   73 1   
    73   70   77 1   
    74   71   72 2   
    75   71   83 1   
    76   73   74 1   
    77   73   75 1   
    78   73   78 1   
    79   74   80 1   
    80   74   81 1   
    81   74   82 1   
    82   75   79 1   
    83   83   84 1   
    84   83   91 1   
    85   84   85 1   
    86   84   87 1   
    87   84   92 1   
    88   85   86 2   
    89   85  102 1   
    90   87   88 1   
    91   87   89 1   
    92   87   93 1   
    93   88   90 1   
    94   88   94 1   
    95   88   95 1   
    96   89   96 1   
    97   89   97 1   
    98   89   98 1   
    99   90   99 1   
   100   90  100 1   
   101   90  101 1   
   102  102  103 1   
   103  102  110 1   
   104  103  104 1   
   105  103  106 1   
   106  103  111 1   
   107  104  105 2   
   108  104  114 1   
   109  106  107 1   
   110  106  112 1   
   111  106  113 1   
   112  107  108 1   
   113  107  109 1   
   114  114  115 1   
   115  114  125 1   
   116  115  116 1   
   117  115  118 1   
   118  115  126 1   
   119  116  117 2   
   120  116  134 1   
   121  118  119 1   
   122  118  127 1   
   123  118  128 1   
   124  119  120 ar  
   125  119  121 ar  
   126  120  122 ar  
   127  120  129 1   
   128  121  123 ar  
   129  121  130 1   
   130  122  124 ar  
   131  122  131 1   
   132  123  124 ar  
   133  123  132 1   
   134  124  133 1   
   135  134  135 1   
   136  134  140 1   
   137  135  136 1   
   138  135  138 1   
   139  135  141 1   
   140  136  137 2   
   141  136  148 1   
   142  138  139 1   
   143  138  142 1   
   144  138  143 1   
   145  139  140 1   
   146  139  144 1   
   147  139  145 1   
   148  140  146 1   
   149  140  147 1   
   150  148  149 1   
   151  148  157 1   
   152  149  150 1   
   153  149  152 1   
   154  149  158 1   
   155  150  151 2   
   156  150  163 1   
   157  152  153 1   
   158  152  159 1   
   159  152  160 1   
   160  153  154 1   
   161  153  161 1   
   162  153  162 1   
   163  154  155 1   
   164  154  156 1   
   165  163  164 1   
   166  163  168 1   
   167  164  165 1   
   168  164  166 1   
   169  164  167 1   
   170  170  171 1   
   171  170  172 1   
   172  173  174 1   
   173  173  175 1   
   174  176  177 1   
   175  176  178 1   
@<TRIPOS>SUBSTRUCTURE
     1 MOL         1 TEMP              0 ****  ****    0 ROOT
