@<TRIPOS>MOLECULE
MOL
  178   175     1     0     0
SMALL
resp


@<TRIPOS>ATOM
      1 C1          5.2170   -1.8550    2.4580 c3        1 MOL     -0.419870
      2 C2          6.4780   -0.9750    2.2530 c         1 MOL      0.623150
      3 O1          6.3930    0.1390    1.7960 o         1 MOL     -0.563729
      4 H1          5.1730   -2.6120    1.6750 hc        1 MOL      0.119320
      5 H2          5.2670   -2.3420    3.4320 hc        1 MOL      0.119320
      6 H3          4.3260   -1.2300    2.4090 hc        1 MOL      0.119320
      7 N1          7.6910   -1.5330    2.4930 n         1 MOL     -0.442270
      8 C3          8.9020   -0.9390    2.1490 c3        1 MOL      0.050588
      9 C4          9.1220   -0.8090    0.6560 c         1 MOL      0.582834
     10 O2          9.2930   -1.7790   -0.1170 o         1 MOL     -0.558369
     11 C5          9.9720   -1.7270    2.8170 c3        1 MOL     -0.360313
     12 C6         11.3530   -1.1030    2.7340 c         1 MOL      0.830416
     13 O3         11.5610    0.0450    2.2950 o         1 MOL     -0.761242
     14 O4         12.2610   -1.7580    3.2270 o         1 MOL     -0.761242
     15 H4          7.7590   -2.4780    2.8210 hn        1 MOL      0.277294
     16 H5          8.8170    0.0360    2.6250 h1        1 MOL      0.076271
     17 H6         10.0790   -2.7670    2.5230 hc        1 MOL      0.071358
     18 H7          9.7900   -1.7390    3.9000 hc        1 MOL      0.071358
     19 N2          9.0260    0.4060    0.1540 n         1 MOL     -0.474939
     20 C7          8.8650    0.6940   -1.2150 c3        1 MOL      0.306128
     21 C8          7.5160    0.3440   -1.7730 c         1 MOL      0.296080
     22 O5          7.4110    0.1750   -2.9540 o         1 MOL     -0.547850
     23 C9          9.1280    2.2000   -1.3000 c3        1 MOL     -0.335378
     24 H8          8.8590    1.1300    0.8430 hn        1 MOL      0.262035
     25 H9          9.6380    0.1220   -1.7420 h1        1 MOL      0.055442
     26 H10         9.3850    2.4920   -2.3210 hc        1 MOL      0.083546
     27 H11         8.2670    2.6940   -0.8460 hc        1 MOL      0.083546
     28 H12         9.9700    2.4930   -0.6720 hc        1 MOL      0.083546
     29 N3          6.5110    0.1180   -0.9630 n         1 MOL     -0.095520
     30 C10         5.1450   -0.2930   -1.3520 c3        1 MOL      0.228856
     31 C11         4.3590    0.7630   -2.2050 c         1 MOL      0.511094
     32 O6          3.6530    0.4660   -3.1190 o         1 MOL     -0.468968
     33 C12         5.1510   -1.6680   -2.0050 c3        1 MOL      0.048408
     34 C13         3.8230   -2.4400   -2.0010 c         1 MOL      0.501865
     35 O7          3.7470   -3.5670   -2.5220 o         1 MOL     -0.688091
     36 O8          2.8150   -1.9570   -1.4010 o         1 MOL     -0.688091
     37 H13         6.7390    0.1280    0.0120 hn        1 MOL      0.060479
     38 H14         4.5320   -0.4690   -0.4650 h1        1 MOL     -0.033566
     39 H15         5.8850   -2.2300   -1.4300 hc        1 MOL     -0.013907
     40 H16         5.5160   -1.6030   -3.0300 hc        1 MOL     -0.013907
     41 N4          4.4520    2.0620   -1.8400 n         1 MOL     -0.516531
     42 C14         4.3690    3.1270   -2.8160 c3        1 MOL     -0.083947
     43 C15         3.0040    3.7210   -3.1440 c         1 MOL      0.690634
     44 O9          2.9700    4.8010   -3.6260 o         1 MOL     -0.620161
     45 H17         4.9330    2.2550   -0.9660 hn        1 MOL      0.272149
     46 H18         4.7000    2.7100   -3.7750 h1        1 MOL      0.078477
     47 H19         5.0260    3.9220   -2.4500 h1        1 MOL      0.078477
     48 N5          1.9090    3.0350   -2.8090 n         1 MOL     -0.442048
     49 C16         0.5180    3.5980   -2.9510 c3        1 MOL     -0.026817
     50 C17         0.2620    4.7730   -2.0080 c         1 MOL      0.641697
     51 O10         0.7110    4.7540   -0.8450 o         1 MOL     -0.540385
     52 C18        -0.5270    2.4730   -2.9150 c3        1 MOL     -0.531840
     53 C19        -1.9900    2.9440   -2.9760 c         1 MOL      0.724991
     54 N6         -2.7110    2.7910   -1.8740 n         1 MOL     -0.722598
     55 O11        -2.4570    3.4420   -3.9450 o         1 MOL     -0.587257
     56 H20         1.9920    2.1650   -2.3090 hn        1 MOL      0.292226
     57 H21         0.4900    3.9480   -3.9850 h1        1 MOL      0.091227
     58 H22        -0.3650    2.1160   -1.8960 hc        1 MOL      0.209524
     59 H23        -0.2880    1.8770   -3.7950 hc        1 MOL      0.209524
     60 H24        -2.2580    2.5200   -1.0110 hn        1 MOL      0.351954
     61 H25        -3.5540    3.3430   -1.9190 hn        1 MOL      0.351954
     62 N7         -0.5880    5.7370   -2.3780 n         1 MOL     -0.492615
     63 C20        -1.0090    6.7850   -1.4120 c3        1 MOL     -0.105171
     64 C21        -2.1710    6.2270   -0.5880 c         1 MOL      0.532393
     65 O12        -3.0930    5.6270   -1.1700 o         1 MOL     -0.439376
     66 H26        -1.2540    5.5590   -3.1230 hn        1 MOL      0.297929
     67 H27        -1.4850    7.6080   -1.9480 h1        1 MOL      0.108131
     68 H28        -0.1710    7.0650   -0.7810 h1        1 MOL      0.108131
     69 N8         -2.1540    6.5520    0.7190 n         1 MOL     -0.590052
     70 C22        -3.2830    6.0990    1.5810 c3        1 MOL     -0.015327
     71 C23        -3.0690    4.7110    2.1600 c         1 MOL      0.495437
     72 O13        -4.0190    3.9370    2.3570 o         1 MOL     -0.575205
     73 C24        -3.6660    7.2100    2.5800 c3        1 MOL      0.541131
     74 C25        -2.5410    7.3700    3.7010 c3        1 MOL     -0.497839
     75 O14        -3.8940    8.4170    1.8690 oh        1 MOL     -0.668199
     76 H29        -1.4970    7.1870    1.1630 hn        1 MOL      0.291017
     77 H30        -4.2180    6.0230    1.0390 h1        1 MOL      0.088325
     78 H31        -4.6010    6.8330    2.9980 h1        1 MOL     -0.001827
     79 H32        -3.1080    8.7830    1.4630 ho        1 MOL      0.402059
     80 H33        -1.5340    7.1380    3.3700 hc        1 MOL      0.112750
     81 H34        -2.6940    8.3750    4.1030 hc        1 MOL      0.112750
     82 H35        -2.7530    6.6300    4.4760 hc        1 MOL      0.112750
     83 N9         -1.8090    4.2770    2.3180 n         1 MOL     -0.215553
     84 C26        -1.5170    2.9400    2.8110 c3        1 MOL     -0.171602
     85 C27        -1.6970    1.8860    1.6880 c         1 MOL      0.799682
     86 O15        -1.3440    2.2010    0.5620 o         1 MOL     -0.574615
     87 C28        -0.1550    2.7800    3.5220 c3        1 MOL      0.271158
     88 C29         0.1700    3.9330    4.5060 c3        1 MOL     -0.438977
     89 C30        -0.1160    1.4110    4.2270 c3        1 MOL     -0.088248
     90 C31        -0.8430    4.1770    5.6120 c3        1 MOL     -0.039325
     91 H36        -1.0440    4.8770    2.0740 hn        1 MOL      0.241814
     92 H37        -2.1980    2.6960    3.6300 h1        1 MOL      0.095696
     93 H38         0.6190    2.7410    2.7620 hc        1 MOL     -0.021519
     94 H39         0.2830    4.8530    3.9380 hc        1 MOL      0.137698
     95 H40         1.1160    3.6460    4.9720 hc        1 MOL      0.137698
     96 H41         0.7420    1.2960    4.8890 hc        1 MOL      0.030510
     97 H42        -1.0840    1.2550    4.7080 hc        1 MOL      0.030510
     98 H43        -0.0100    0.6130    3.4900 hc        1 MOL      0.030510
     99 H44        -1.0170    3.2870    6.2080 hc        1 MOL      0.019663
    100 H45        -0.5080    4.9090    6.3430 hc        1 MOL      0.019663
    101 H46        -1.7260    4.4970    5.0550 hc        1 MOL      0.019663
    102 N10        -2.1980    0.6630    2.0030 n         1 MOL     -0.847245
    103 C32        -2.1290   -0.4850    1.0730 c3        1 MOL      0.549768
    104 C33        -3.4800   -1.0970    0.5480 c         1 MOL      0.309538
    105 O16        -3.5090   -2.2620    0.1370 o         1 MOL     -0.387826
    106 C34        -1.2210   -1.6080    1.6120 c3        1 MOL      0.031099
    107 C35        -0.3750   -2.3790    0.6280 c         1 MOL      0.549420
    108 O17         0.0340   -1.8560   -0.4200 o         1 MOL     -0.674867
    109 O18         0.0140   -3.5480    0.8770 o         1 MOL     -0.674867
    110 H47        -2.3520    0.4350    2.9710 hn        1 MOL      0.338780
    111 H48        -1.6440   -0.1600    0.1560 h1        1 MOL     -0.061727
    112 H49        -1.7940   -2.2550    2.2800 hc        1 MOL     -0.033810
    113 H50        -0.5210   -1.0910    2.2740 hc        1 MOL     -0.033810
    114 N11        -4.6120   -0.3700    0.4610 n         1 MOL     -0.472271
    115 C36        -5.7800   -0.8340   -0.3530 c3        1 MOL      0.252873
    116 C37        -6.4060   -2.1020    0.2530 c         1 MOL      0.186808
    117 O19        -6.5650   -2.1440    1.5320 o         1 MOL     -0.489768
    118 C38        -6.8700    0.2640   -0.5720 c3        1 MOL     -0.189813
    119 C39        -6.3430    1.4550   -1.3310 ca        1 MOL      0.054703
    120 C40        -5.9810    2.6030   -0.6330 ca        1 MOL     -0.178539
    121 C41        -6.2640    1.4820   -2.7670 ca        1 MOL     -0.178539
    122 C42        -5.6880    3.8430   -1.2280 ca        1 MOL     -0.052772
    123 C43        -5.9620    2.6770   -3.4400 ca        1 MOL     -0.052772
    124 C44        -5.7020    3.8510   -2.6630 ca        1 MOL     -0.240396
    125 H51        -4.6550    0.5240    0.9210 hn        1 MOL      0.316287
    126 H52        -5.4260   -1.1110   -1.3400 h1        1 MOL      0.044080
    127 H53        -7.1550    0.6600    0.4020 hc        1 MOL      0.089228
    128 H54        -7.8150    0.0440   -1.0880 hc        1 MOL      0.089228
    129 H55        -6.0810    2.6050    0.4420 ha        1 MOL      0.110530
    130 H56        -6.5040    0.5850   -3.3250 ha        1 MOL      0.110530
    131 H57        -5.4730    4.7700   -0.7120 ha        1 MOL      0.117162
    132 H58        -6.0640    2.7050   -4.5090 ha        1 MOL      0.117162
    133 H59        -5.5850    4.7490   -3.2490 ha        1 MOL      0.139629
    134 N12        -6.7950   -3.0520   -0.5650 n         1 MOL     -0.014893
    135 C45        -7.3690   -4.2460   -0.0240 c3        1 MOL      0.086545
    136 C46        -6.3800   -4.9380    0.9550 c         1 MOL      0.287563
    137 O20        -6.7450   -5.5000    1.9380 o         1 MOL     -0.479345
    138 C47        -7.6880   -5.0600   -1.3550 c3        1 MOL      0.043800
    139 C48        -8.0360   -4.0380   -2.3420 c3        1 MOL     -0.052631
    140 C49        -7.0400   -2.9380   -1.9820 c3        1 MOL     -0.015835
    141 H60        -8.3160   -4.0950    0.4840 h1        1 MOL      0.045566
    142 H61        -6.8880   -5.6950   -1.7210 hc        1 MOL      0.007222
    143 H62        -8.5370   -5.6970   -1.1080 hc        1 MOL      0.007222
    144 H63        -8.0240   -4.3840   -3.3730 hc        1 MOL      0.024970
    145 H64        -9.0140   -3.6240   -2.1090 hc        1 MOL      0.024970
    146 H65        -6.0460   -2.9760   -2.4250 h1        1 MOL      0.043055
    147 H66        -7.4320   -1.9580   -2.2500 h1        1 MOL      0.043055
    148 N13        -5.0690   -4.8980    0.6830 n         1 MOL     -0.222944
    149 C50        -4.1210   -5.6230    1.4580 c3        1 MOL     -0.103374
    150 C51        -4.0370   -5.0210    2.8300 c         1 MOL      0.325705
    151 O21        -3.6850   -5.7470    3.7990 o         1 MOL     -0.574539
    152 C52        -2.7290   -5.4680    0.7580 c3        1 MOL      0.069159
    153 C53        -2.6520   -6.0040   -0.6990 c3        1 MOL     -0.305155
    154 C54        -1.2630   -5.7180   -1.2440 c         1 MOL      0.707537
    155 O22        -0.2450   -6.0960   -0.6540 o         1 MOL     -0.758681
    156 O23        -1.1250   -4.8210   -2.1240 o         1 MOL     -0.758681
    157 H67        -4.7170   -4.1570    0.0960 hn        1 MOL      0.198615
    158 H68        -4.2650   -6.7050    1.3670 h1        1 MOL      0.133256
    159 H69        -2.0240   -6.0900    1.2970 hc        1 MOL      0.050975
    160 H70        -2.3780   -4.4320    0.7530 hc        1 MOL      0.050975
    161 H71        -3.4810   -5.7100   -1.3440 hc        1 MOL      0.053145
    162 H72        -2.6670   -7.0530   -0.3880 hc        1 MOL      0.053145
    163 N14        -4.4070   -3.7970    3.0640 n         1 MOL      0.131085
    164 C55        -4.2240   -3.1040    4.3280 c3        1 MOL     -0.180255
    165 H73        -3.3690   -3.5290    4.8540 h1        1 MOL      0.058155
    166 H74        -4.0440   -2.0450    4.1410 h1        1 MOL      0.058155
    167 H75        -5.1200   -3.2170    4.9390 h1        1 MOL      0.058155
    168 H76        -4.6880   -3.3040    2.2330 hn        1 MOL      0.082643
    169 Ca1         1.2490   -4.0660   -1.4060 Ca        1 MOL      1.727502
    170 O24         2.8080   -5.2930    0.4450 oh        1 MOL     -0.776215
    171 H77         2.9070   -5.2550    1.4000 ho        1 MOL      0.387855
    172 H78         3.5410   -5.8330    0.1480 ho        1 MOL      0.387855
    173 O25         0.9720   -3.4000   -3.9210 oh        1 MOL     -0.776215
    174 H79         0.9420   -2.4620   -4.1220 ho        1 MOL      0.387855
    175 H80         0.9200   -3.8280   -4.7800 ho        1 MOL      0.387855
    176 O26         1.9350   -6.1660   -2.7590 oh        1 MOL     -0.776215
    177 H81         2.6450   -6.5350   -3.2860 ho        1 MOL      0.387855
    178 H82         1.5380   -6.9270   -2.3250 ho        1 MOL      0.387855
@<TRIPOS>BOND
     1    1    2 1   
     2    1    4 1   
     3    1    5 1   
     4    1    6 1   
     5    2    3 2   
     6    2    7 1   
     7    7    8 1   
     8    7   15 1   
     9    8    9 1   
    10    8   11 1   
    11    8   16 1   
    12    9   10 2   
    13    9   19 1   
    14   11   12 1   
    15   11   17 1   
    16   11   18 1   
    17   12   13 1   
    18   12   14 1   
    19   19   20 1   
    20   19   24 1   
    21   20   21 1   
    22   20   23 1   
    23   20   25 1   
    24   21   22 2   
    25   21   29 1   
    26   23   26 1   
    27   23   27 1   
    28   23   28 1   
    29   29   30 1   
    30   29   37 1   
    31   30   31 1   
    32   30   33 1   
    33   30   38 1   
    34   31   32 2   
    35   31   41 1   
    36   33   34 1   
    37   33   39 1   
    38   33   40 1   
    39   34   35 1   
    40   34   36 1   
    41   41   42 1   
    42   41   45 1   
    43   42   43 1   
    44   42   46 1   
    45   42   47 1   
    46   43   44 2   
    47   43   48 1   
    48   48   49 1   
    49   48   56 1   
    50   49   50 1   
    51   49   52 1   
    52   49   57 1   
    53   50   51 2   
    54   50   62 1   
    55   52   53 1   
    56   52   58 1   
    57   52   59 1   
    58   53   54 1   
    59   53   55 2   
    60   54   60 1   
    61   54   61 1   
    62   62   63 1   
    63   62   66 1   
    64   63   64 1   
    65   63   67 1   
    66   63   68 1   
    67   64   65 2   
    68   64   69 1   
    69   69   70 1   
    70   69   76 1   
    71   70   71 1   
    72   70   73 1   
    73   70   77 1   
    74   71   72 2   
    75   71   83 1   
    76   73   74 1   
    77   73   75 1   
    78   73   78 1   
    79   74   80 1   
    80   74   81 1   
    81   74   82 1   
    82   75   79 1   
    83   83   84 1   
    84   83   91 1   
    85   84   85 1   
    86   84   87 1   
    87   84   92 1   
    88   85   86 2   
    89   85  102 1   
    90   87   88 1   
    91   87   89 1   
    92   87   93 1   
    93   88   90 1   
    94   88   94 1   
    95   88   95 1   
    96   89   96 1   
    97   89   97 1   
    98   89   98 1   
    99   90   99 1   
   100   90  100 1   
   101   90  101 1   
   102  102  103 1   
   103  102  110 1   
   104  103  104 1   
   105  103  106 1   
   106  103  111 1   
   107  104  105 2   
   108  104  114 1   
   109  106  107 1   
   110  106  112 1   
   111  106  113 1   
   112  107  108 1   
   113  107  109 1   
   114  114  115 1   
   115  114  125 1   
   116  115  116 1   
   117  115  118 1   
   118  115  126 1   
   119  116  117 2   
   120  116  134 1   
   121  118  119 1   
   122  118  127 1   
   123  118  128 1   
   124  119  120 ar  
   125  119  121 ar  
   126  120  122 ar  
   127  120  129 1   
   128  121  123 ar  
   129  121  130 1   
   130  122  124 ar  
   131  122  131 1   
   132  123  124 ar  
   133  123  132 1   
   134  124  133 1   
   135  134  135 1   
   136  134  140 1   
   137  135  136 1   
   138  135  138 1   
   139  135  141 1   
   140  136  137 2   
   141  136  148 1   
   142  138  139 1   
   143  138  142 1   
   144  138  143 1   
   145  139  140 1   
   146  139  144 1   
   147  139  145 1   
   148  140  146 1   
   149  140  147 1   
   150  148  149 1   
   151  148  157 1   
   152  149  150 1   
   153  149  152 1   
   154  149  158 1   
   155  150  151 2   
   156  150  163 1   
   157  152  153 1   
   158  152  159 1   
   159  152  160 1   
   160  153  154 1   
   161  153  161 1   
   162  153  162 1   
   163  154  155 1   
   164  154  156 1   
   165  163  164 1   
   166  163  168 1   
   167  164  165 1   
   168  164  166 1   
   169  164  167 1   
   170  170  171 1   
   171  170  172 1   
   172  173  174 1   
   173  173  175 1   
   174  176  177 1   
   175  176  178 1   
@<TRIPOS>SUBSTRUCTURE
     1 MOL         1 TEMP              0 ****  ****    0 ROOT
