@<TRIPOS>MOLECULE
MOL
  181   177     1     0     0
SMALL
resp


@<TRIPOS>ATOM
      1 C1          5.1350   -2.1530    3.0630 c3        1 MOL     -0.290311
      2 C2          6.1920   -1.1010    2.6780 c         1 MOL      0.610601
      3 O1          5.9420   -0.0450    2.1040 o         1 MOL     -0.594217
      4 H1          5.2150   -3.0100    2.3940 hc        1 MOL      0.087108
      5 H2          5.3000   -2.4760    4.0900 hc        1 MOL      0.087108
      6 H3          4.1390   -1.7170    2.9740 hc        1 MOL      0.087108
      7 N1          7.4980   -1.4750    2.8870 n         1 MOL     -0.482748
      8 C3          8.6670   -0.5390    2.6850 c3        1 MOL      0.083701
      9 C4          8.9650   -0.3410    1.2130 c         1 MOL      0.574953
     10 O2          9.1250   -1.3420    0.4660 o         1 MOL     -0.527404
     11 C5          9.8650   -1.0790    3.4190 c3        1 MOL     -0.352711
     12 C6         10.1910   -2.5440    3.1950 c         1 MOL      0.815009
     13 O3          9.3010   -3.3910    3.3240 o         1 MOL     -0.734137
     14 O4         11.3880   -2.9010    3.1220 o         1 MOL     -0.734137
     15 H4          7.7730   -2.3230    3.3530 hn        1 MOL      0.308753
     16 H5          8.4360    0.4390    3.1070 h1        1 MOL      0.022394
     17 H6          9.7520   -1.0500    4.5020 hc        1 MOL      0.059185
     18 H7         10.7520   -0.4700    3.2150 hc        1 MOL      0.059185
     19 N2          8.8430    0.8990    0.8080 n         1 MOL     -0.517117
     20 C7          8.8630    1.2790   -0.6600 c3        1 MOL      0.325111
     21 C8          7.6210    0.9270   -1.4810 c         1 MOL      0.431304
     22 O5          7.6350    0.6970   -2.7090 o         1 MOL     -0.559682
     23 C9          9.4050    2.7040   -0.7570 c3        1 MOL     -0.346122
     24 H8          8.7180    1.6460    1.4800 hn        1 MOL      0.273345
     25 H9          9.6050    0.6390   -1.1360 h1        1 MOL      0.036463
     26 H10         8.6000    3.3980   -0.5070 hc        1 MOL      0.079780
     27 H11        10.3650    2.8480   -0.2630 hc        1 MOL      0.079780
     28 H12         9.5010    2.8820   -1.8330 hc        1 MOL      0.079780
     29 N3          6.4880    0.7370   -0.8000 n         1 MOL     -0.576628
     30 C10         5.2440    0.1850   -1.3450 c3        1 MOL      0.499053
     31 C11         4.4980    0.9080   -2.5150 c         1 MOL      0.325061
     32 O6          3.8280    0.2910   -3.2910 o         1 MOL     -0.443187
     33 C12         5.4800   -1.3280   -1.4800 c3        1 MOL     -0.215548
     34 C13         4.2440   -2.1940   -1.6620 c         1 MOL      0.589768
     35 O7          4.1920   -3.1160   -2.5380 o         1 MOL     -0.718463
     36 O8          3.1510   -1.7430   -1.1350 o         1 MOL     -0.718463
     37 H13         6.3810    0.8520    0.1940 hn        1 MOL      0.273305
     38 H14         4.5150    0.3490   -0.5480 h1        1 MOL     -0.040494
     39 H15         5.9930   -1.6100   -0.5620 hc        1 MOL      0.092004
     40 H16         6.0650   -1.4800   -2.3810 hc        1 MOL      0.092004
     41 N4          4.8010    2.1750   -2.7460 n         1 MOL     -0.159673
     42 C14         4.5540    3.0060   -3.9130 c3        1 MOL     -0.150181
     43 C15         3.1560    3.6960   -3.9820 c         1 MOL      0.438871
     44 O9          2.8650    4.3590   -5.0310 o         1 MOL     -0.575660
     45 H17         5.2650    2.6980   -2.0180 hn        1 MOL      0.182103
     46 H18         4.8100    2.4160   -4.7990 h1        1 MOL      0.107308
     47 H19         5.3530    3.7400   -3.9890 h1        1 MOL      0.107308
     48 N5          2.3140    3.5100   -3.0440 n         1 MOL     -0.336393
     49 C16         0.9530    3.9080   -3.0210 c3        1 MOL      0.305148
     50 C17         0.5700    4.7390   -1.7650 c         1 MOL      0.313750
     51 O10         0.9780    4.4100   -0.6330 o         1 MOL     -0.507947
     52 C18         0.0860    2.5810   -3.0760 c3        1 MOL      0.027736
     53 C19        -1.3680    2.8960   -3.4950 c         1 MOL      0.553252
     54 N6         -2.2840    1.9030   -3.5100 n         1 MOL     -0.781577
     55 O11        -1.7570    4.0840   -3.6150 o         1 MOL     -0.560067
     56 H20         2.6380    2.8570   -2.3390 hn        1 MOL      0.179642
     57 H21         0.7350    4.6160   -3.8190 h1        1 MOL     -0.046631
     58 H22        -0.0210    2.1710   -2.0740 hc        1 MOL     -0.000289
     59 H23         0.5680    1.8790   -3.7630 hc        1 MOL     -0.000289
     60 H24        -2.1220    0.9220   -3.3240 hn        1 MOL      0.359933
     61 H25        -3.2320    2.1370   -3.7820 hn        1 MOL      0.359933
     62 N7          0.0020    5.8860   -1.9890 n         1 MOL     -0.140181
     63 C20        -0.3940    6.9000   -1.0270 c3        1 MOL     -0.352270
     64 C21        -1.7930    6.6780   -0.3560 c         1 MOL      0.696088
     65 O12        -2.6930    6.2740   -1.0360 o         1 MOL     -0.523394
     66 H26        -0.1710    6.0920   -2.9660 hn        1 MOL      0.270615
     67 H27        -0.5780    7.8540   -1.5250 h1        1 MOL      0.112069
     68 H28         0.3570    6.9640   -0.2360 h1        1 MOL      0.112069
     69 N8         -1.9350    6.8520    0.9170 n         1 MOL     -0.358619
     70 C22        -3.1860    6.7170    1.6900 c3        1 MOL     -0.501449
     71 C23        -3.2760    5.3270    2.3010 c         1 MOL      0.795366
     72 O13        -4.2720    4.9720    2.8660 o         1 MOL     -0.621998
     73 C24        -3.4420    7.8560    2.6890 c3        1 MOL      0.576964
     74 C25        -2.6070    7.8640    3.9840 c3        1 MOL     -0.455399
     75 O14        -3.2700    9.1200    2.0510 oh        1 MOL     -0.641694
     76 H29        -1.1470    7.2280    1.4100 hn        1 MOL      0.257540
     77 H30        -4.0560    6.8340    1.0470 h1        1 MOL      0.188045
     78 H31        -4.5020    7.8770    2.9580 h1        1 MOL      0.021081
     79 H32        -2.5660    9.1010    1.3930 ho        1 MOL      0.365292
     80 H33        -2.7900    8.8280    4.4620 hc        1 MOL      0.109872
     81 H34        -2.9650    7.1200    4.6910 hc        1 MOL      0.109872
     82 H35        -1.5530    7.6520    3.7900 hc        1 MOL      0.109872
     83 N9         -2.2710    4.4270    2.1840 n         1 MOL     -0.381731
     84 C26        -2.2320    3.0280    2.5860 c3        1 MOL     -0.053328
     85 C27        -1.8410    2.0940    1.4230 c         1 MOL      0.502354
     86 O15        -1.2770    2.5700    0.4160 o         1 MOL     -0.349431
     87 C28        -1.3330    2.8590    3.8200 c3        1 MOL      0.146102
     88 C29         0.1060    3.4740    3.6110 c3        1 MOL      0.251936
     89 C30        -2.0630    3.3270    5.0510 c3        1 MOL     -0.421278
     90 C31         1.1770    3.0190    4.6250 c3        1 MOL     -0.234989
     91 H36        -1.6110    4.6660    1.4590 hn        1 MOL      0.153649
     92 H37        -3.2840    2.8070    2.7920 h1        1 MOL      0.106354
     93 H38        -1.1700    1.8210    4.0940 hc        1 MOL      0.006688
     94 H39         0.0650    4.5480    3.7680 hc        1 MOL     -0.041100
     95 H40         0.5120    3.2400    2.6290 hc        1 MOL     -0.041100
     96 H41        -2.4490    4.3370    5.0050 hc        1 MOL      0.095668
     97 H42        -2.8380    2.5710    5.2090 hc        1 MOL      0.095668
     98 H43        -1.4540    3.2620    5.9560 hc        1 MOL      0.095668
     99 H44         0.8270    3.1270    5.6490 hc        1 MOL      0.047204
    100 H45         1.4150    1.9680    4.4610 hc        1 MOL      0.047204
    101 H46         2.1030    3.5720    4.4430 hc        1 MOL      0.047204
    102 N10        -2.1730    0.7900    1.4220 n         1 MOL     -0.715428
    103 C32        -1.8650   -0.2040    0.3680 c3        1 MOL      0.229887
    104 C33        -3.1440   -0.8080   -0.1760 c         1 MOL      0.568671
    105 O16        -3.1710   -1.9620   -0.5570 o         1 MOL     -0.504030
    106 C34        -0.8960   -1.2540    0.9930 c3        1 MOL      0.143985
    107 C35        -0.1750   -2.0790   -0.0950 c         1 MOL      0.446709
    108 O17        -0.0080   -1.6350   -1.3090 o         1 MOL     -0.626151
    109 O18         0.2750   -3.2000    0.2650 o         1 MOL     -0.626151
    110 H47        -2.6660    0.4180    2.2200 hn        1 MOL      0.318762
    111 H48        -1.3930    0.2770   -0.4850 h1        1 MOL     -0.028869
    112 H49        -1.4940   -1.8910    1.6480 hc        1 MOL      0.003428
    113 H50        -0.1760   -0.7410    1.6180 hc        1 MOL      0.003428
    114 N11        -4.2820   -0.0640   -0.2200 n         1 MOL     -0.530278
    115 C36        -5.5540   -0.6380   -0.5580 c3        1 MOL      0.233478
    116 C37        -6.0050   -1.7460    0.4010 c         1 MOL      0.156763
    117 O19        -5.6680   -1.6270    1.6250 o         1 MOL     -0.466872
    118 C38        -6.6750    0.4830   -0.5600 c3        1 MOL     -0.264156
    119 C39        -8.0030    0.2860   -1.2170 ca        1 MOL      0.097676
    120 C40        -8.2580    0.6590   -2.4840 ca        1 MOL     -0.145144
    121 C41        -8.9660   -0.3780   -0.3800 ca        1 MOL     -0.145144
    122 C42        -9.5610    0.3430   -3.0140 ca        1 MOL     -0.104419
    123 C43       -10.1710   -0.7840   -0.9190 ca        1 MOL     -0.104419
    124 C44       -10.5270   -0.3620   -2.2480 ca        1 MOL     -0.168534
    125 H51        -4.1730    0.9060    0.0120 hn        1 MOL      0.309125
    126 H52        -5.4630   -1.1230   -1.5370 h1        1 MOL      0.033372
    127 H53        -6.1560    1.3970   -0.8530 hc        1 MOL      0.107426
    128 H54        -6.9070    0.6870    0.4850 hc        1 MOL      0.107426
    129 H55        -7.6090    1.2570   -3.1120 ha        1 MOL      0.122419
    130 H56        -8.7250   -0.7710    0.5950 ha        1 MOL      0.122419
    131 H57        -9.8300    0.6950   -3.9910 ha        1 MOL      0.111284
    132 H58       -10.9510   -1.2820   -0.3770 ha        1 MOL      0.111284
    133 H59       -11.5250   -0.5350   -2.6340 ha        1 MOL      0.122767
    134 N12        -6.7530   -2.7900   -0.0740 n         1 MOL      0.063596
    135 C45        -7.1100   -3.9380    0.7320 c3        1 MOL      0.190107
    136 C46        -5.9720   -4.6480    1.3570 c         1 MOL      0.293612
    137 O20        -6.2390   -5.4340    2.2570 o         1 MOL     -0.530186
    138 C47        -8.0470   -4.8060   -0.0500 c3        1 MOL     -0.209107
    139 C48        -8.5440   -3.9300   -1.2160 c3        1 MOL      0.016388
    140 C49        -7.3330   -2.9710   -1.4120 c3        1 MOL     -0.031710
    141 H60        -7.5710   -3.4480    1.5910 h1        1 MOL      0.016975
    142 H61        -7.4970   -5.6190   -0.5390 hc        1 MOL      0.076205
    143 H62        -8.8440   -5.1420    0.6090 hc        1 MOL      0.076205
    144 H63        -8.8380   -4.4040   -2.1480 hc        1 MOL      0.016316
    145 H64        -9.4330   -3.4230   -0.8630 hc        1 MOL      0.016316
    146 H65        -6.6220   -3.4860   -2.0640 h1        1 MOL      0.039674
    147 H66        -7.5660   -2.0110   -1.8580 h1        1 MOL      0.039674
    148 N13        -4.7460   -4.4180    0.9180 n         1 MOL     -0.164235
    149 C50        -3.5850   -5.0460    1.5740 c3        1 MOL     -0.179418
    150 C51        -3.1190   -4.4600    2.8540 c         1 MOL      0.404872
    151 O21        -2.1660   -4.9850    3.4520 o         1 MOL     -0.519842
    152 C52        -2.4410   -5.0660    0.5710 c3        1 MOL      0.332722
    153 C53        -1.3930   -6.2120    0.6080 c3        1 MOL     -0.147574
    154 C54        -0.2600   -5.9380   -0.4110 c         1 MOL      0.749924
    155 O22         0.9320   -6.0600   -0.0770 o         1 MOL     -0.772076
    156 O23        -0.5930   -5.5310   -1.5500 o         1 MOL     -0.772076
    157 H67        -4.5760   -3.8190    0.1170 hn        1 MOL      0.129587
    158 H68        -3.6800   -6.1100    1.7930 h1        1 MOL      0.105196
    159 H69        -1.9770   -4.0820    0.5450 hc        1 MOL     -0.043559
    160 H70        -2.8670   -5.1750   -0.4280 hc        1 MOL     -0.043559
    161 H71        -1.8740   -7.1310    0.2770 hc        1 MOL     -0.000488
    162 H72        -0.9700   -6.2710    1.6110 hc        1 MOL     -0.000488
    163 N14        -3.7430   -3.4060    3.3820 n         1 MOL     -0.098663
    164 C55        -3.6290   -2.7670    4.6740 c3        1 MOL     -0.230366
    165 H73        -3.0240   -1.8650    4.5800 h1        1 MOL      0.088079
    166 H74        -4.6220   -2.5010    5.0370 h1        1 MOL      0.088079
    167 H75        -3.1550   -3.4510    5.3780 h1        1 MOL      0.088079
    168 H76        -4.3670   -2.9570    2.7330 hn        1 MOL      0.186020
    169 Ca1         1.7090   -3.7760   -1.8450 Ca        1 MOL      1.734229
    170 O24         2.7770   -5.6690   -3.4610 oh        1 MOL     -0.837144
    171 H77         2.5700   -5.9900   -4.3390 ho        1 MOL      0.410012
    172 H78         3.2540   -6.3850   -3.0470 ho        1 MOL      0.410012
    173 O25         1.5710   -0.9880   -3.5420 oh        1 MOL     -0.837144
    174 H79         2.4080   -0.5410   -3.6130 ho        1 MOL      0.410012
    175 H80         1.1960   -0.6860   -2.7180 ho        1 MOL      0.410012
    176 O26         0.5530   -3.8730   -4.1800 oh        1 MOL     -0.837144
    177 H81         1.0720   -4.1810   -4.9220 ho        1 MOL      0.410012
    178 H82        -0.0320   -3.2190   -4.5580 ho        1 MOL      0.410012
    179 O27         3.1520   -4.6610    0.0570 oh        1 MOL     -0.837144
    180 H83         4.0540   -4.9680    0.1290 ho        1 MOL      0.410012
    181 H84         2.6210   -5.4090    0.3280 ho        1 MOL      0.410012
@<TRIPOS>BOND
     1    1    2 1   
     2    1    4 1   
     3    1    5 1   
     4    1    6 1   
     5    2    3 2   
     6    2    7 1   
     7    7    8 1   
     8    7   15 1   
     9    8    9 1   
    10    8   11 1   
    11    8   16 1   
    12    9   10 2   
    13    9   19 1   
    14   11   12 1   
    15   11   17 1   
    16   11   18 1   
    17   12   13 1   
    18   12   14 1   
    19   19   20 1   
    20   19   24 1   
    21   20   21 1   
    22   20   23 1   
    23   20   25 1   
    24   21   22 2   
    25   21   29 1   
    26   23   26 1   
    27   23   27 1   
    28   23   28 1   
    29   29   30 1   
    30   29   37 1   
    31   30   31 1   
    32   30   33 1   
    33   30   38 1   
    34   31   32 2   
    35   31   41 1   
    36   33   34 1   
    37   33   39 1   
    38   33   40 1   
    39   34   35 1   
    40   34   36 1   
    41   41   42 1   
    42   41   45 1   
    43   42   43 1   
    44   42   46 1   
    45   42   47 1   
    46   43   44 2   
    47   43   48 1   
    48   48   49 1   
    49   48   56 1   
    50   49   50 1   
    51   49   52 1   
    52   49   57 1   
    53   50   51 2   
    54   50   62 1   
    55   52   53 1   
    56   52   58 1   
    57   52   59 1   
    58   53   54 1   
    59   53   55 2   
    60   54   60 1   
    61   54   61 1   
    62   62   63 1   
    63   62   66 1   
    64   63   64 1   
    65   63   67 1   
    66   63   68 1   
    67   64   65 2   
    68   64   69 1   
    69   69   70 1   
    70   69   76 1   
    71   70   71 1   
    72   70   73 1   
    73   70   77 1   
    74   71   72 2   
    75   71   83 1   
    76   73   74 1   
    77   73   75 1   
    78   73   78 1   
    79   74   80 1   
    80   74   81 1   
    81   74   82 1   
    82   75   79 1   
    83   83   84 1   
    84   83   91 1   
    85   84   85 1   
    86   84   87 1   
    87   84   92 1   
    88   85   86 2   
    89   85  102 1   
    90   87   88 1   
    91   87   89 1   
    92   87   93 1   
    93   88   90 1   
    94   88   94 1   
    95   88   95 1   
    96   89   96 1   
    97   89   97 1   
    98   89   98 1   
    99   90   99 1   
   100   90  100 1   
   101   90  101 1   
   102  102  103 1   
   103  102  110 1   
   104  103  104 1   
   105  103  106 1   
   106  103  111 1   
   107  104  105 2   
   108  104  114 1   
   109  106  107 1   
   110  106  112 1   
   111  106  113 1   
   112  107  108 1   
   113  107  109 1   
   114  114  115 1   
   115  114  125 1   
   116  115  116 1   
   117  115  118 1   
   118  115  126 1   
   119  116  117 2   
   120  116  134 1   
   121  118  119 1   
   122  118  127 1   
   123  118  128 1   
   124  119  120 ar  
   125  119  121 ar  
   126  120  122 ar  
   127  120  129 1   
   128  121  123 ar  
   129  121  130 1   
   130  122  124 ar  
   131  122  131 1   
   132  123  124 ar  
   133  123  132 1   
   134  124  133 1   
   135  134  135 1   
   136  134  140 1   
   137  135  136 1   
   138  135  138 1   
   139  135  141 1   
   140  136  137 2   
   141  136  148 1   
   142  138  139 1   
   143  138  142 1   
   144  138  143 1   
   145  139  140 1   
   146  139  144 1   
   147  139  145 1   
   148  140  146 1   
   149  140  147 1   
   150  148  149 1   
   151  148  157 1   
   152  149  150 1   
   153  149  152 1   
   154  149  158 1   
   155  150  151 2   
   156  150  163 1   
   157  152  153 1   
   158  152  159 1   
   159  152  160 1   
   160  153  154 1   
   161  153  161 1   
   162  153  162 1   
   163  154  155 1   
   164  154  156 1   
   165  163  164 1   
   166  163  168 1   
   167  164  165 1   
   168  164  166 1   
   169  164  167 1   
   170  170  171 1   
   171  170  172 1   
   172  173  174 1   
   173  173  175 1   
   174  176  177 1   
   175  176  178 1   
   176  179  180 1   
   177  179  181 1   
@<TRIPOS>SUBSTRUCTURE
     1 MOL         1 TEMP              0 ****  ****    0 ROOT
