@<TRIPOS>MOLECULE
MOL
  195   189     1     0     0
SMALL
resp


@<TRIPOS>ATOM
      1 C1         -4.4670   -2.8750   -6.2630 c3        1 MOL     -0.321748
      2 C2         -4.1920   -1.9200   -5.1360 c         1 MOL      0.731065
      3 O1         -3.4710   -0.9790   -5.2570 o         1 MOL     -0.569969
      4 H1         -3.6060   -3.5290   -6.4030 hc        1 MOL      0.085259
      5 H2         -5.3450   -3.4770   -6.0240 hc        1 MOL      0.085259
      6 H3         -4.6490   -2.3130   -7.1790 hc        1 MOL      0.085259
      7 N1         -4.7050   -2.2020   -3.9450 n         1 MOL     -0.640847
      8 C3         -4.6510   -1.3190   -2.7250 c3        1 MOL      0.261859
      9 C4         -3.2480   -1.2920   -2.1280 c         1 MOL     -0.047226
     10 O2         -3.0520   -0.9070   -0.9550 o         1 MOL     -0.265364
     11 C5         -5.7180   -1.8410   -1.6980 c3        1 MOL     -0.229060
     12 C6         -6.0270   -3.3430   -1.6190 c         1 MOL      0.698709
     13 O3         -6.0220   -3.9150   -0.4990 o         1 MOL     -0.680867
     14 O4         -6.3170   -4.0820   -2.5880 o         1 MOL     -0.680867
     15 H4         -4.9630   -3.1660   -3.8160 hn        1 MOL      0.311172
     16 H5         -4.9350   -0.3300   -3.0840 h1        1 MOL      0.119390
     17 H6         -6.6210   -1.3440   -2.0250 hc        1 MOL      0.086764
     18 H7         -5.4610   -1.6320   -0.6590 hc        1 MOL      0.086764
     19 N2         -2.2230   -1.7280   -2.8250 n         1 MOL     -0.038278
     20 C7         -0.8900   -2.0190   -2.2830 c3        1 MOL     -0.061298
     21 C8          0.2050   -1.3080   -3.1030 c         1 MOL      0.389879
     22 O5          0.2000   -1.5520   -4.3290 o         1 MOL     -0.524286
     23 C9         -0.5610   -3.5630   -2.3460 c3        1 MOL     -0.400587
     24 C10        -1.0420   -4.3180   -1.1490 c3        1 MOL     -0.446123
     25 C11        -2.5250   -4.6030   -1.0950 c3        1 MOL      0.107915
     26 C12        -2.7490   -5.3170    0.2290 c3        1 MOL      0.053952
     27 N3         -4.1280   -5.7340    0.4280 n4        1 MOL     -0.420483
     28 H8         -2.2530   -1.8110   -3.8400 hn        1 MOL      0.263135
     29 H9         -0.7560   -1.7770   -1.2330 h1        1 MOL      0.077225
     30 H10         0.5240   -3.6960   -2.3200 hc        1 MOL      0.188909
     31 H11        -1.0600   -4.0210   -3.2020 hc        1 MOL      0.188909
     32 H12        -0.6590   -3.8010   -0.2700 hc        1 MOL      0.160697
     33 H13        -0.5500   -5.2930   -1.2480 hc        1 MOL      0.160697
     34 H14        -2.7790   -5.2040   -1.9680 hc        1 MOL      0.051459
     35 H15        -3.0250   -3.6390   -1.1650 hc        1 MOL      0.051459
     36 H16        -2.4770   -4.6630    1.0700 hx        1 MOL      0.043476
     37 H17        -2.1630   -6.2350    0.2290 hx        1 MOL      0.043476
     38 H18        -4.7570   -4.9730    0.2140 hn        1 MOL      0.312887
     39 H19        -4.3420   -6.4750   -0.2320 hn        1 MOL      0.312887
     40 H20        -4.3190   -5.9050    1.3980 hn        1 MOL      0.312887
     41 N4          0.9990   -0.3760   -2.5960 n         1 MOL     -0.298873
     42 C13         1.2370   -0.1010   -1.1630 c3        1 MOL      0.076571
     43 C14         1.5490   -1.3500   -0.2860 c         1 MOL      0.094701
     44 O6          0.9550   -1.6310    0.7670 o         1 MOL     -0.318564
     45 C15         0.2220    0.7320   -0.4700 c3        1 MOL      0.053881
     46 C16         0.3710    2.2090   -0.8870 c         1 MOL      0.622295
     47 O7          1.3270    2.5910   -1.5950 o         1 MOL     -0.839697
     48 O8         -0.5040    3.0460   -0.4980 o         1 MOL     -0.839697
     49 H21         1.6700   -0.0480   -3.2800 hn        1 MOL      0.270046
     50 H22         2.2230    0.3410   -1.0680 h1        1 MOL      0.144182
     51 H23         0.5820    0.7480    0.5610 hc        1 MOL      0.107263
     52 H24        -0.8180    0.4030   -0.5200 hc        1 MOL      0.107263
     53 N5          2.3510   -2.3100   -0.7630 n         1 MOL     -0.202734
     54 C17         3.3590   -2.0310   -1.8430 c3        1 MOL     -0.008628
     55 C18         4.4410   -3.1010   -1.7240 c         1 MOL      0.612876
     56 O9          4.3020   -4.0920   -1.0540 o         1 MOL     -0.558397
     57 H25         2.4550   -3.0770   -0.1110 hn        1 MOL      0.230353
     58 H26         3.7100   -1.0000   -1.8100 h1        1 MOL      0.064905
     59 H27         2.8910   -2.2940   -2.7970 h1        1 MOL      0.064905
     60 N6          5.6340   -2.8940   -2.2840 n         1 MOL     -0.544258
     61 C19         6.2090   -1.6670   -2.9190 c3        1 MOL      0.126022
     62 C20         7.1470   -0.8930   -1.9910 c         1 MOL      0.520831
     63 O10         7.5710   -1.4430   -0.9140 o         1 MOL     -0.456073
     64 C21         7.0000   -2.1480   -4.0700 c3        1 MOL     -0.270685
     65 C22         8.1700   -3.1280   -3.7400 c         1 MOL      0.687553
     66 O11         9.3120   -2.6640   -3.8810 o         1 MOL     -0.633285
     67 O12         8.0690   -4.2870   -3.2390 o         1 MOL     -0.633285
     68 H28         6.3090   -3.6150   -2.0600 hn        1 MOL      0.312323
     69 H29         5.3750   -1.0130   -3.1880 h1        1 MOL      0.012671
     70 H30         7.4340   -1.3100   -4.6170 hc        1 MOL      0.045245
     71 H31         6.3160   -2.6080   -4.7820 hc        1 MOL      0.045245
     72 N7          7.4860    0.3290   -2.3660 n         1 MOL     -0.318284
     73 C23         8.4360    1.1760   -1.6050 c3        1 MOL     -0.252713
     74 C24         7.8550    1.6870   -0.2330 c         1 MOL      0.547062
     75 O13         8.5170    1.9140    0.7290 o         1 MOL     -0.518916
     76 H32         7.1060    0.7030   -3.2280 hn        1 MOL      0.271007
     77 H33         8.7320    2.0420   -2.2050 h1        1 MOL      0.152176
     78 H34         9.3470    0.6460   -1.3480 h1        1 MOL      0.152176
     79 N8          6.4950    1.7960   -0.1520 n         1 MOL     -0.490611
     80 C25         5.6840    1.9500    1.1120 c3        1 MOL      0.312757
     81 C26         4.8680    0.6600    1.2170 c         1 MOL      0.596402
     82 O14         4.2130    0.2590    0.2590 o         1 MOL     -0.587883
     83 C27         4.6980    3.1240    0.9820 c3        1 MOL      0.229859
     84 C28         5.5350    4.3880    0.9990 c3        1 MOL     -0.385474
     85 O15         3.9660    3.1760    2.1350 oh        1 MOL     -0.605679
     86 H35         5.9480    1.5040   -0.9440 hn        1 MOL      0.189177
     87 H36         6.2810    2.0320    2.0220 h1        1 MOL      0.021448
     88 H37         4.1140    3.0710    0.0700 h1        1 MOL      0.058313
     89 H38         4.4660    3.7530    2.7210 ho        1 MOL      0.392063
     90 H39         6.1630    4.4090    0.1090 hc        1 MOL      0.094609
     91 H40         4.8590    5.2360    1.0720 hc        1 MOL      0.094609
     92 H41         6.1930    4.3830    1.8750 hc        1 MOL      0.094609
     93 N9          4.6210    0.0450    2.3730 n         1 MOL     -0.500012
     94 C29         3.9690   -1.2400    2.5610 c3        1 MOL     -0.234980
     95 C30         2.6780   -1.2460    3.3690 c         1 MOL      0.504382
     96 O16         2.2360   -2.2230    3.9540 o         1 MOL     -0.535683
     97 C31         4.9560   -2.2920    3.0950 c3        1 MOL      0.351919
     98 C32         5.4760   -1.9270    4.5160 c3        1 MOL      0.092960
     99 C33         6.1170   -2.4340    2.0830 c3        1 MOL     -0.283337
    100 C34         5.7040   -3.1960    5.3130 c3        1 MOL     -0.153215
    101 H42         4.9130    0.5090    3.2240 hn        1 MOL      0.223828
    102 H43         3.7000   -1.6100    1.5760 h1        1 MOL      0.161927
    103 H44         4.4610   -3.2700    3.1440 hc        1 MOL     -0.028601
    104 H45         4.6600   -1.3770    4.9760 hc        1 MOL     -0.025708
    105 H46         6.4350   -1.4070    4.5160 hc        1 MOL     -0.025708
    106 H47         6.6790   -1.5080    2.1060 hc        1 MOL      0.071735
    107 H48         6.7160   -3.3060    2.3420 hc        1 MOL      0.071735
    108 H49         5.7000   -2.6230    1.0870 hc        1 MOL      0.071735
    109 H50         5.9560   -2.8490    6.3220 hc        1 MOL      0.027284
    110 H51         4.7420   -3.6890    5.3900 hc        1 MOL      0.027284
    111 H52         6.5050   -3.8520    4.9740 hc        1 MOL      0.027284
    112 N10         2.0070   -0.0830    3.3450 n         1 MOL      0.003700
    113 C35         1.0580    0.2670    4.4330 c3        1 MOL     -0.176140
    114 C36        -0.3240   -0.2830    4.2360 c         1 MOL      0.430646
    115 O17        -1.0330   -0.2410    5.2680 o         1 MOL     -0.546362
    116 C37         1.0720    1.7800    4.8360 c3        1 MOL      0.233581
    117 C38         0.4680    2.6330    3.7000 c3        1 MOL     -0.290670
    118 O18         2.3490    2.3240    5.1310 oh        1 MOL     -0.660607
    119 H53         2.4790    0.6190    2.7890 hn        1 MOL      0.223421
    120 H54         1.4510   -0.2090    5.3300 h1        1 MOL      0.132072
    121 H55         0.4120    1.8540    5.7010 h1        1 MOL      0.058497
    122 H56         2.2060    3.1690    5.5540 ho        1 MOL      0.417632
    123 H57         0.4470    3.6880    3.9840 hc        1 MOL      0.083067
    124 H58         0.9910    2.5510    2.7430 hc        1 MOL      0.083067
    125 H59        -0.5650    2.2910    3.6220 hc        1 MOL      0.083067
    126 N11        -0.5950   -0.7730    2.9880 n         1 MOL     -0.002976
    127 C39        -1.9550   -1.2500    2.5870 c3        1 MOL      0.083467
    128 C40        -3.0290   -0.1730    2.4670 c         1 MOL      0.219418
    129 O19        -2.8140    0.9890    2.8390 o         1 MOL     -0.483354
    130 C41        -2.4390   -2.4680    3.4160 c3        1 MOL      0.187857
    131 C42        -1.4250   -3.5970    3.6840 c3        1 MOL     -0.389802
    132 O20        -3.4940   -3.0960    2.7390 oh        1 MOL     -0.458887
    133 H60         0.1560   -0.7900    2.3220 hn        1 MOL     -0.249219
    134 H61        -1.9680   -1.5550    1.5350 h1        1 MOL      0.175270
    135 H62        -3.0090   -2.1180    4.2800 h1        1 MOL     -0.013455
    136 H63        -3.7900   -3.6770    3.4490 ho        1 MOL      0.353710
    137 H64        -0.8820   -3.2600    4.5660 hc        1 MOL      0.113490
    138 H65        -1.8410   -4.5870    3.8780 hc        1 MOL      0.113490
    139 H66        -0.8360   -3.7620    2.7790 hc        1 MOL      0.113490
    140 N12        -4.2390   -0.5000    1.9500 n         1 MOL      0.221508
    141 C43        -5.4580    0.3190    1.9800 c3        1 MOL     -0.314099
    142 C44        -5.5350    1.3850    0.8980 c         1 MOL      0.529510
    143 O21        -6.2990    2.3270    1.0680 o         1 MOL     -0.577920
    144 C45        -6.7060   -0.5440    1.9520 c3        1 MOL     -0.268007
    145 C46        -6.7470   -1.7920    2.9240 c3        1 MOL      0.054474
    146 C47        -6.4930   -1.5100    4.4340 c3        1 MOL      0.143025
    147 C48        -7.2230   -0.2280    4.9930 c3        1 MOL      0.010128
    148 N13        -6.5610    0.1180    6.3300 n4        1 MOL     -0.335287
    149 H67        -4.3460   -1.4780    1.7390 hn        1 MOL      0.049239
    150 H68        -5.3080    0.7920    2.9510 h1        1 MOL      0.114563
    151 H69        -6.9060   -0.8910    0.9330 hc        1 MOL      0.115149
    152 H70        -7.5940    0.0430    2.1510 hc        1 MOL      0.115149
    153 H71        -6.0950   -2.5720    2.5500 hc        1 MOL     -0.005565
    154 H72        -7.7600   -2.2100    2.8930 hc        1 MOL     -0.005565
    155 H73        -5.4210   -1.5200    4.6090 hc        1 MOL     -0.043319
    156 H74        -6.9220   -2.3540    4.9740 hc        1 MOL     -0.043319
    157 H75        -8.3070   -0.3570    5.0680 hx        1 MOL      0.090408
    158 H76        -6.9650    0.5650    4.3010 hx        1 MOL      0.090408
    159 H77        -5.5700    0.0680    6.1570 hn        1 MOL      0.290364
    160 H78        -6.9530    1.0140    6.5850 hn        1 MOL      0.290364
    161 H79        -6.7680   -0.6690    6.9200 hn        1 MOL      0.290364
    162 N14        -5.0100    1.1960   -0.3150 n         1 MOL     -0.026675
    163 C49        -4.9870    2.2560   -1.3740 c3        1 MOL     -0.151692
    164 C50        -6.2530    2.2030   -2.2810 c         1 MOL      0.420617
    165 O22        -6.2450    1.9040   -3.4830 o         1 MOL     -0.509486
    166 C51        -3.6590    2.2660   -2.1910 c3        1 MOL      0.392447
    167 C52        -3.3440    3.4580   -3.0590 c3        1 MOL     -0.525043
    168 C53        -2.7880    4.6740   -2.2890 c         1 MOL      0.923481
    169 O23        -1.7010    5.1880   -2.6640 o         1 MOL     -0.777146
    170 O24        -3.5590    5.4390   -1.6310 o         1 MOL     -0.777146
    171 H80        -4.5190    0.3330   -0.4920 hn        1 MOL     -0.162056
    172 H81        -4.9720    3.1970   -0.8150 h1        1 MOL      0.102823
    173 H82        -3.7440    1.4870   -2.9550 hc        1 MOL     -0.036436
    174 H83        -2.8610    2.0990   -1.4680 hc        1 MOL     -0.036436
    175 H84        -4.2460    3.7820   -3.5740 hc        1 MOL      0.127630
    176 H85        -2.5900    3.2150   -3.8120 hc        1 MOL      0.127630
    177 N15        -7.4050    2.5040   -1.7680 n         1 MOL     -0.260036
    178 C54        -8.7010    2.2310   -2.3980 c3        1 MOL     -0.074262
    179 H86        -8.5640    2.1080   -3.4720 h1        1 MOL      0.065106
    180 H87        -9.1230    1.3170   -1.9800 h1        1 MOL      0.065106
    181 H88        -9.3790    3.0630   -2.2110 h1        1 MOL      0.065106
    182 H89        -7.4500    2.8030   -0.8060 hn        1 MOL      0.250293
    183 Ca1         0.6580    5.2340   -1.4260 Ca        1 MOL      1.725249
    184 O25         0.7810    7.5240   -2.6440 oh        1 MOL     -0.836224
    185 H90         0.2230    7.9730   -3.2890 ho        1 MOL      0.416993
    186 H91         1.5940    8.0290   -2.6360 ho        1 MOL      0.416993
    187 O26         1.8660    4.4010    0.9350 oh        1 MOL     -0.836224
    188 H92         2.0710    5.2700    1.2970 ho        1 MOL      0.416993
    189 H93         2.4960    3.8140    1.3520 ho        1 MOL      0.416993
    190 O27        -1.2610    6.6520   -0.2990 oh        1 MOL     -0.836224
    191 H94        -1.5450    6.7760    0.6010 ho        1 MOL      0.416993
    192 H95        -2.0680    6.6270   -0.8120 ho        1 MOL      0.416993
    193 O28         1.9010    7.0480    0.2320 oh        1 MOL     -0.836224
    194 H96         1.3290    7.8090    0.3130 ho        1 MOL      0.416993
    195 H97         2.7010    7.3830   -0.1750 ho        1 MOL      0.416993
@<TRIPOS>BOND
     1    1    2 1   
     2    1    4 1   
     3    1    5 1   
     4    1    6 1   
     5    2    3 2   
     6    2    7 1   
     7    7    8 1   
     8    7   15 1   
     9    8    9 1   
    10    8   11 1   
    11    8   16 1   
    12    9   10 2   
    13    9   19 1   
    14   11   12 1   
    15   11   17 1   
    16   11   18 1   
    17   12   13 1   
    18   12   14 1   
    19   19   20 1   
    20   19   28 1   
    21   20   21 1   
    22   20   23 1   
    23   20   29 1   
    24   21   22 2   
    25   21   41 1   
    26   23   24 1   
    27   23   30 1   
    28   23   31 1   
    29   24   25 1   
    30   24   32 1   
    31   24   33 1   
    32   25   26 1   
    33   25   34 1   
    34   25   35 1   
    35   26   27 1   
    36   26   36 1   
    37   26   37 1   
    38   27   38 1   
    39   27   39 1   
    40   27   40 1   
    41   41   42 1   
    42   41   49 1   
    43   42   43 1   
    44   42   45 1   
    45   42   50 1   
    46   43   44 2   
    47   43   53 1   
    48   45   46 1   
    49   45   51 1   
    50   45   52 1   
    51   46   47 1   
    52   46   48 1   
    53   53   54 1   
    54   53   57 1   
    55   54   55 1   
    56   54   58 1   
    57   54   59 1   
    58   55   56 2   
    59   55   60 1   
    60   60   61 1   
    61   60   68 1   
    62   61   62 1   
    63   61   64 1   
    64   61   69 1   
    65   62   63 2   
    66   62   72 1   
    67   64   65 1   
    68   64   70 1   
    69   64   71 1   
    70   65   66 1   
    71   65   67 1   
    72   72   73 1   
    73   72   76 1   
    74   73   74 1   
    75   73   77 1   
    76   73   78 1   
    77   74   75 2   
    78   74   79 1   
    79   79   80 1   
    80   79   86 1   
    81   80   81 1   
    82   80   83 1   
    83   80   87 1   
    84   81   82 2   
    85   81   93 1   
    86   83   84 1   
    87   83   85 1   
    88   83   88 1   
    89   84   90 1   
    90   84   91 1   
    91   84   92 1   
    92   85   89 1   
    93   93   94 1   
    94   93  101 1   
    95   94   95 1   
    96   94   97 1   
    97   94  102 1   
    98   95   96 2   
    99   95  112 1   
   100   97   98 1   
   101   97   99 1   
   102   97  103 1   
   103   98  100 1   
   104   98  104 1   
   105   98  105 1   
   106   99  106 1   
   107   99  107 1   
   108   99  108 1   
   109  100  109 1   
   110  100  110 1   
   111  100  111 1   
   112  112  113 1   
   113  112  119 1   
   114  113  114 1   
   115  113  116 1   
   116  113  120 1   
   117  114  115 2   
   118  114  126 1   
   119  116  117 1   
   120  116  118 1   
   121  116  121 1   
   122  117  123 1   
   123  117  124 1   
   124  117  125 1   
   125  118  122 1   
   126  126  127 1   
   127  126  133 1   
   128  127  128 1   
   129  127  130 1   
   130  127  134 1   
   131  128  129 2   
   132  128  140 1   
   133  130  131 1   
   134  130  132 1   
   135  130  135 1   
   136  131  137 1   
   137  131  138 1   
   138  131  139 1   
   139  132  136 1   
   140  140  141 1   
   141  140  149 1   
   142  141  142 1   
   143  141  144 1   
   144  141  150 1   
   145  142  143 2   
   146  142  162 1   
   147  144  145 1   
   148  144  151 1   
   149  144  152 1   
   150  145  146 1   
   151  145  153 1   
   152  145  154 1   
   153  146  147 1   
   154  146  155 1   
   155  146  156 1   
   156  147  148 1   
   157  147  157 1   
   158  147  158 1   
   159  148  159 1   
   160  148  160 1   
   161  148  161 1   
   162  162  163 1   
   163  162  171 1   
   164  163  164 1   
   165  163  166 1   
   166  163  172 1   
   167  164  165 2   
   168  164  177 1   
   169  166  167 1   
   170  166  173 1   
   171  166  174 1   
   172  167  168 1   
   173  167  175 1   
   174  167  176 1   
   175  168  169 1   
   176  168  170 1   
   177  177  178 1   
   178  177  182 1   
   179  178  179 1   
   180  178  180 1   
   181  178  181 1   
   182  184  185 1   
   183  184  186 1   
   184  187  188 1   
   185  187  189 1   
   186  190  191 1   
   187  190  192 1   
   188  193  194 1   
   189  193  195 1   
@<TRIPOS>SUBSTRUCTURE
     1 MOL         1 TEMP              0 ****  ****    0 ROOT
