@<TRIPOS>MOLECULE
MOL
  182   178     1     0     0
SMALL
resp


@<TRIPOS>ATOM
      1 C1         -0.2790   -5.2610    5.0500 c3        1 MOL     -0.431700
      2 C2         -0.0850   -4.4570    3.7560 c         1 MOL      0.805015
      3 O1         -0.8190   -4.6280    2.8500 o         1 MOL     -0.610982
      4 H1          0.5880   -5.1210    5.6970 hc        1 MOL      0.108994
      5 H2         -1.1750   -4.9130    5.5630 hc        1 MOL      0.108994
      6 H3         -0.3840   -6.3190    4.8100 hc        1 MOL      0.108994
      7 N1          1.0410   -3.8120    3.7270 n         1 MOL     -0.596261
      8 C3          1.6070   -3.2060    2.5490 c3        1 MOL      0.111614
      9 C4          2.2540   -4.2040    1.6150 c         1 MOL      0.543931
     10 O2          3.3720   -4.5940    1.8920 o         1 MOL     -0.527965
     11 C5          2.4690   -2.0500    3.0110 c3        1 MOL     -0.070048
     12 C6          3.0540   -1.3410    1.7240 c         1 MOL      0.726466
     13 O3          3.7750   -0.3540    1.9150 o         1 MOL     -0.737439
     14 O4          2.7650   -1.6710    0.4930 o         1 MOL     -0.737439
     15 H4          1.7450   -3.9260    4.4330 hn        1 MOL      0.332225
     16 H5          0.7640   -2.8060    1.9890 h1        1 MOL     -0.136569
     17 H6          3.2470   -2.4470    3.6630 hc        1 MOL      0.054511
     18 H7          1.8430   -1.2950    3.4740 hc        1 MOL      0.054511
     19 N2          1.6130   -4.5980    0.4870 n         1 MOL     -0.331801
     20 C7          2.0440   -5.6370   -0.4530 c3        1 MOL     -0.022544
     21 C8          3.2410   -5.3380   -1.2960 c         1 MOL      0.566060
     22 O5          3.8240   -6.3140   -1.8240 o         1 MOL     -0.555881
     23 C9          0.8690   -6.0050   -1.3520 c3        1 MOL     -0.166391
     24 C10         0.5320   -4.9450   -2.4060 c3        1 MOL      0.438415
     25 C11        -0.4480   -5.4260   -3.5090 c3        1 MOL     -0.067227
     26 C12        -0.8080   -4.4410   -4.6960 c3        1 MOL     -0.138496
     27 N3         -1.8580   -3.3690   -4.4010 n4        1 MOL     -0.279259
     28 H8          0.6760   -4.2480    0.3680 hn        1 MOL      0.272140
     29 H9          2.3530   -6.4780    0.1570 h1        1 MOL      0.113837
     30 H10         0.0680   -6.2610   -0.6560 hc        1 MOL      0.048322
     31 H11         1.1960   -6.9330   -1.8290 hc        1 MOL      0.048322
     32 H12         1.4500   -4.4950   -2.7940 hc        1 MOL     -0.131434
     33 H13        -0.0630   -4.1520   -1.9510 hc        1 MOL     -0.131434
     34 H14        -1.3360   -5.7910   -3.0060 hc        1 MOL      0.036560
     35 H15         0.0200   -6.3050   -3.9620 hc        1 MOL      0.036560
     36 H16        -1.2650   -5.1020   -5.4280 hx        1 MOL      0.139398
     37 H17         0.0910   -3.9600   -5.0880 hx        1 MOL      0.139398
     38 H18        -2.4670   -3.0650   -5.1440 hn        1 MOL      0.316567
     39 H19        -2.4630   -3.7060   -3.6650 hn        1 MOL      0.316567
     40 H20        -1.4750   -2.4990   -4.0570 hn        1 MOL      0.316567
     41 N4          3.6430   -4.0650   -1.3320 n         1 MOL     -0.382902
     42 C13         4.6350   -3.5420   -2.1880 c3        1 MOL      0.135495
     43 C14         5.7710   -2.7930   -1.4100 c         1 MOL      0.439998
     44 O6          6.7700   -2.5600   -2.0930 o         1 MOL     -0.532979
     45 C15         4.0070   -2.6530   -3.2630 c3        1 MOL     -0.276309
     46 C16         3.3020   -1.4710   -2.5870 c         1 MOL      0.931193
     47 O7          2.0360   -1.3980   -2.5580 o         1 MOL     -0.851927
     48 O8          3.9180   -0.5480   -2.0530 o         1 MOL     -0.851927
     49 H21         3.0110   -3.4500   -0.8320 hn        1 MOL      0.064243
     50 H22         5.1680   -4.3720   -2.6680 h1        1 MOL      0.088210
     51 H23         3.2910   -3.2200   -3.8560 hc        1 MOL      0.082955
     52 H24         4.8010   -2.3850   -3.9580 hc        1 MOL      0.082955
     53 N5          5.7280   -2.5100   -0.1070 n         1 MOL     -0.179535
     54 C17         6.7770   -1.7950    0.6830 c3        1 MOL     -0.373238
     55 C18         7.1110   -0.3870    0.2200 c         1 MOL      0.756275
     56 O9          8.0620    0.1640    0.7420 o         1 MOL     -0.574834
     57 H25         4.8360   -2.5830    0.3570 hn        1 MOL      0.217273
     58 H26         7.7000   -2.3770    0.7450 h1        1 MOL      0.160536
     59 H27         6.3600   -1.8150    1.6830 h1        1 MOL      0.160536
     60 N6          6.2500    0.2240   -0.5880 n         1 MOL     -0.479867
     61 C19         6.5670    1.5540   -1.1960 c3        1 MOL      0.199160
     62 C20         5.2550    2.3980   -1.2900 c         1 MOL      0.435788
     63 O10         4.1840    1.8730   -1.1300 o         1 MOL     -0.378286
     64 C21         7.2820    1.4110   -2.5730 c3        1 MOL     -0.260276
     65 C22         8.6170    0.7020   -2.5810 c         1 MOL      0.707233
     66 N7          8.6650   -0.5370   -2.8930 n         1 MOL     -0.823446
     67 O11         9.6630    1.2830   -2.3210 o         1 MOL     -0.590082
     68 H28         5.4030   -0.2370   -0.8790 hn        1 MOL      0.310562
     69 H29         7.2700    2.0550   -0.5280 h1        1 MOL      0.025381
     70 H30         7.4780    2.3750   -3.0350 hc        1 MOL      0.052356
     71 H31         6.5980    0.8880   -3.2480 hc        1 MOL      0.052356
     72 H32         7.8930   -1.1780   -2.9850 hn        1 MOL      0.370925
     73 H33         9.5880   -0.9260   -3.0050 hn        1 MOL      0.370925
     74 N8          5.4450    3.7480   -1.5460 n         1 MOL     -0.450411
     75 C23         4.4210    4.8270   -1.5530 c3        1 MOL     -0.053351
     76 C24         3.6440    4.9170   -0.1790 c         1 MOL      0.594154
     77 O12         4.2730    4.8480    0.8690 o         1 MOL     -0.488123
     78 H34         6.4290    3.9760   -1.6430 hn        1 MOL      0.319821
     79 H35         3.7870    4.4540   -2.3570 h1        1 MOL      0.067135
     80 H36         4.8680    5.7890   -1.8040 h1        1 MOL      0.067135
     81 N9          2.3380    5.0180   -0.4020 n         1 MOL     -0.640746
     82 C25         1.3450    4.8550    0.7290 c3        1 MOL      0.440315
     83 C26         1.4410    3.5120    1.4310 c         1 MOL      0.420852
     84 O13         1.8940    2.4780    0.8540 o         1 MOL     -0.563625
     85 C27        -0.0420    5.1830    0.2630 c3        1 MOL     -0.130853
     86 C28        -0.3550    6.5640   -0.3500 ca        1 MOL      0.210750
     87 C29        -0.4210    7.6680    0.4690 ca        1 MOL     -0.313127
     88 C30        -0.5960    6.6510   -1.7140 ca        1 MOL     -0.313127
     89 C31        -0.7020    8.9630   -0.0330 ca        1 MOL     -0.137898
     90 C32        -0.9840    7.9060   -2.2610 ca        1 MOL     -0.137898
     91 C33        -1.0100    9.0270   -1.4030 ca        1 MOL      0.232882
     92 O14        -1.5570   10.1610   -1.8770 oh        1 MOL     -0.426275
     93 H37         1.9580    5.1370   -1.3240 hn        1 MOL      0.283902
     94 H38         1.5490    5.5450    1.5520 h1        1 MOL     -0.034273
     95 H39        -0.8200    4.9210    0.9800 hc        1 MOL      0.007330
     96 H40        -0.2930    4.4240   -0.4760 hc        1 MOL      0.007330
     97 H41        -0.3790    7.6040    1.5480 ha        1 MOL      0.165627
     98 H42        -0.6810    5.7340   -2.2850 ha        1 MOL      0.165627
     99 H43        -0.7780    9.7960    0.6470 ha        1 MOL      0.146835
    100 H44        -1.1640    7.9010   -3.3240 ha        1 MOL      0.146835
    101 H45        -1.7460   10.0730   -2.8080 ho        1 MOL      0.339924
    102 N10         0.7930    3.4490    2.6000 n         1 MOL     -0.366908
    103 C34         0.5540    2.2440    3.4480 c3        1 MOL      0.228291
    104 C35        -0.1050    0.9930    2.6710 c         1 MOL      0.186470
    105 O15         0.2160    0.6120    1.5530 o         1 MOL     -0.468163
    106 C36         1.7970    1.8650    4.3640 c3        1 MOL      0.087394
    107 C37         1.4760    1.0270    5.6100 c3        1 MOL      0.039983
    108 C38         2.5210    3.2310    4.6860 c3        1 MOL     -0.098177
    109 C39         2.7220    0.5270    6.2330 c3        1 MOL     -0.172685
    110 H46         0.3100    4.2820    2.9130 hn        1 MOL      0.245939
    111 H47        -0.2430    2.5240    4.1440 h1        1 MOL     -0.011283
    112 H48         2.4640    1.3820    3.6440 hc        1 MOL      0.096061
    113 H49         0.8450    0.2380    5.2010 hc        1 MOL     -0.021846
    114 H50         0.9010    1.7020    6.2400 hc        1 MOL     -0.021846
    115 H51         3.3020    3.0570    5.4240 hc        1 MOL      0.020201
    116 H52         2.9640    3.7410    3.8280 hc        1 MOL      0.020201
    117 H53         1.8070    3.9820    5.0340 hc        1 MOL      0.020201
    118 H54         3.4460    0.1840    5.4830 hc        1 MOL      0.052769
    119 H55         3.0980    1.2600    6.9500 hc        1 MOL      0.052769
    120 H56         2.4830   -0.4340    6.6810 hc        1 MOL      0.052769
    121 N11        -0.9200    0.2860    3.4210 n         1 MOL     -0.284525
    122 C40        -1.7140   -0.9490    2.9860 c3        1 MOL     -0.123267
    123 C41        -2.8260   -0.7660    1.9390 c         1 MOL      0.395635
    124 O16        -3.5910   -1.7240    1.7000 o         1 MOL     -0.501086
    125 C42        -2.2980   -1.7050    4.1680 c3        1 MOL      0.187333
    126 O17        -1.3840   -1.6910    5.3230 oh        1 MOL     -0.599712
    127 H57        -1.0610    0.5990    4.3790 hn        1 MOL      0.232869
    128 H58        -1.0210   -1.6470    2.5200 h1        1 MOL      0.267127
    129 H59        -2.4460   -2.7580    3.9120 h1        1 MOL      0.064056
    130 H60        -3.3030   -1.4400    4.5160 h1        1 MOL      0.064056
    131 H61        -1.7640   -1.0140    5.8970 ho        1 MOL      0.381306
    132 N12        -3.0210    0.3430    1.1820 n         1 MOL     -0.320143
    133 C43        -4.2000    0.3890    0.2990 c3        1 MOL      0.017214
    134 C44        -4.0390   -0.4770   -0.9460 c         1 MOL      0.828813
    135 O18        -2.9530   -0.5560   -1.5100 o         1 MOL     -0.709293
    136 C45        -4.5700    1.7770   -0.2290 c3        1 MOL     -0.322727
    137 H62        -2.4310    1.1660    1.2290 hn        1 MOL      0.258474
    138 H63        -5.0690    0.0460    0.8530 h1        1 MOL      0.103963
    139 H64        -3.7440    2.1730   -0.8310 hc        1 MOL      0.097530
    140 H65        -5.4780    1.6990   -0.8240 hc        1 MOL      0.097530
    141 H66        -4.8020    2.3640    0.6610 hc        1 MOL      0.097530
    142 N13        -5.0420   -1.2040   -1.4390 n         1 MOL     -0.716705
    143 C46        -6.4010   -1.4590   -1.0340 c3        1 MOL      0.442670
    144 C47        -7.4100   -0.4540   -1.7400 c         1 MOL      0.465838
    145 O19        -7.0060    0.4180   -2.5220 o         1 MOL     -0.557702
    146 C48        -6.6230   -2.9100   -1.4160 c3        1 MOL     -0.176198
    147 H67        -4.8200   -1.6470   -2.3190 hn        1 MOL      0.278147
    148 H68        -6.4200   -1.3950    0.0530 h1        1 MOL      0.000038
    149 H69        -5.8690   -3.5070   -0.8940 hc        1 MOL      0.045474
    150 H70        -7.5960   -3.2650   -1.0790 hc        1 MOL      0.045474
    151 H71        -6.5450   -3.0640   -2.4920 hc        1 MOL      0.045474
    152 N14        -8.6780   -0.3760   -1.3110 n         1 MOL     -0.427787
    153 C49        -9.3630   -1.0550   -0.1310 c3        1 MOL     -0.390323
    154 C50        -9.7460    0.0230    0.9170 c         1 MOL      0.588020
    155 O20        -9.7960   -0.2730    2.1250 o         1 MOL     -0.558835
    156 C51       -10.5370   -1.9110   -0.5030 c3        1 MOL      0.325294
    157 C52       -11.8300   -1.2570   -1.0550 c3        1 MOL     -0.361692
    158 C53       -11.5270   -0.5110   -2.3590 c         1 MOL      0.744227
    159 O21       -11.4010   -1.2010   -3.4120 o         1 MOL     -0.705993
    160 O22       -11.2190    0.6830   -2.3560 o         1 MOL     -0.705993
    161 H72        -9.2930    0.1590   -1.9090 hn        1 MOL      0.337048
    162 H73        -8.6090   -1.6880    0.3380 h1        1 MOL      0.125620
    163 H74       -10.8110   -2.5360    0.3450 hc        1 MOL     -0.026785
    164 H75       -10.1950   -2.6440   -1.2310 hc        1 MOL     -0.026785
    165 H76       -12.2450   -0.6760   -0.2250 hc        1 MOL      0.062436
    166 H77       -12.5680   -1.9950   -1.3430 hc        1 MOL      0.062436
    167 N15        -9.8580    1.2840    0.5150 n         1 MOL     -0.327780
    168 C54       -10.0940    2.4940    1.3400 c3        1 MOL     -0.027602
    169 H78       -11.1220    2.8310    1.2050 h1        1 MOL      0.054429
    170 H79        -9.9250    2.2570    2.3900 h1        1 MOL      0.054429
    171 H80        -9.4090    3.2850    1.0300 h1        1 MOL      0.054429
    172 H81        -9.9350    1.4500   -0.4770 hn        1 MOL      0.254206
    173 Ca1         1.8620    0.4470   -0.6460 Ca        1 MOL      1.768181
    174 O23         0.0070   -1.3990   -0.9930 oh        1 MOL     -0.843649
    175 H82        -0.3840   -2.1920   -0.6270 ho        1 MOL      0.420974
    176 H83         0.5120   -1.7060   -1.7540 ho        1 MOL      0.420974
    177 O24        -0.5300    1.4640   -1.1360 oh        1 MOL     -0.843649
    178 H84        -1.1040    1.9030   -1.7630 ho        1 MOL      0.420974
    179 H85        -1.1190    0.9050   -0.6270 ho        1 MOL      0.420974
    180 O25         1.7430    2.1200   -2.7930 oh        1 MOL     -0.843649
    181 H86         1.2270    2.7880   -3.2510 ho        1 MOL      0.420974
    182 H87         2.4290    1.8830   -3.4100 ho        1 MOL      0.420974
@<TRIPOS>BOND
     1    1    2 1   
     2    1    4 1   
     3    1    5 1   
     4    1    6 1   
     5    2    3 2   
     6    2    7 1   
     7    7    8 1   
     8    7   15 1   
     9    8    9 1   
    10    8   11 1   
    11    8   16 1   
    12    9   10 2   
    13    9   19 1   
    14   11   12 1   
    15   11   17 1   
    16   11   18 1   
    17   12   13 1   
    18   12   14 1   
    19   19   20 1   
    20   19   28 1   
    21   20   21 1   
    22   20   23 1   
    23   20   29 1   
    24   21   22 2   
    25   21   41 1   
    26   23   24 1   
    27   23   30 1   
    28   23   31 1   
    29   24   25 1   
    30   24   32 1   
    31   24   33 1   
    32   25   26 1   
    33   25   34 1   
    34   25   35 1   
    35   26   27 1   
    36   26   36 1   
    37   26   37 1   
    38   27   38 1   
    39   27   39 1   
    40   27   40 1   
    41   41   42 1   
    42   41   49 1   
    43   42   43 1   
    44   42   45 1   
    45   42   50 1   
    46   43   44 2   
    47   43   53 1   
    48   45   46 1   
    49   45   51 1   
    50   45   52 1   
    51   46   47 1   
    52   46   48 1   
    53   53   54 1   
    54   53   57 1   
    55   54   55 1   
    56   54   58 1   
    57   54   59 1   
    58   55   56 2   
    59   55   60 1   
    60   60   61 1   
    61   60   68 1   
    62   61   62 1   
    63   61   64 1   
    64   61   69 1   
    65   62   63 2   
    66   62   74 1   
    67   64   65 1   
    68   64   70 1   
    69   64   71 1   
    70   65   66 1   
    71   65   67 2   
    72   66   72 1   
    73   66   73 1   
    74   74   75 1   
    75   74   78 1   
    76   75   76 1   
    77   75   79 1   
    78   75   80 1   
    79   76   77 2   
    80   76   81 1   
    81   81   82 1   
    82   81   93 1   
    83   82   83 1   
    84   82   85 1   
    85   82   94 1   
    86   83   84 2   
    87   83  102 1   
    88   85   86 1   
    89   85   95 1   
    90   85   96 1   
    91   86   87 ar  
    92   86   88 ar  
    93   87   89 ar  
    94   87   97 1   
    95   88   90 ar  
    96   88   98 1   
    97   89   91 ar  
    98   89   99 1   
    99   90   91 ar  
   100   90  100 1   
   101   91   92 1   
   102   92  101 1   
   103  102  103 1   
   104  102  110 1   
   105  103  104 1   
   106  103  106 1   
   107  103  111 1   
   108  104  105 2   
   109  104  121 1   
   110  106  107 1   
   111  106  108 1   
   112  106  112 1   
   113  107  109 1   
   114  107  113 1   
   115  107  114 1   
   116  108  115 1   
   117  108  116 1   
   118  108  117 1   
   119  109  118 1   
   120  109  119 1   
   121  109  120 1   
   122  121  122 1   
   123  121  127 1   
   124  122  123 1   
   125  122  125 1   
   126  122  128 1   
   127  123  124 2   
   128  123  132 1   
   129  125  126 1   
   130  125  129 1   
   131  125  130 1   
   132  126  131 1   
   133  132  133 1   
   134  132  137 1   
   135  133  134 1   
   136  133  136 1   
   137  133  138 1   
   138  134  135 2   
   139  134  142 1   
   140  136  139 1   
   141  136  140 1   
   142  136  141 1   
   143  142  143 1   
   144  142  147 1   
   145  143  144 1   
   146  143  146 1   
   147  143  148 1   
   148  144  145 2   
   149  144  152 1   
   150  146  149 1   
   151  146  150 1   
   152  146  151 1   
   153  152  153 1   
   154  152  161 1   
   155  153  154 1   
   156  153  156 1   
   157  153  162 1   
   158  154  155 2   
   159  154  167 1   
   160  156  157 1   
   161  156  163 1   
   162  156  164 1   
   163  157  158 1   
   164  157  165 1   
   165  157  166 1   
   166  158  159 1   
   167  158  160 1   
   168  167  168 1   
   169  167  172 1   
   170  168  169 1   
   171  168  170 1   
   172  168  171 1   
   173  174  175 1   
   174  174  176 1   
   175  177  178 1   
   176  177  179 1   
   177  180  181 1   
   178  180  182 1   
@<TRIPOS>SUBSTRUCTURE
     1 MOL         1 TEMP              0 ****  ****    0 ROOT
