@<TRIPOS>MOLECULE
MOL
  201   193     1     0     0
SMALL
resp


@<TRIPOS>ATOM
      1 C1          2.6390   -4.4710   -1.3870 c3        1 MOL     -0.118480
      2 C2          1.6200   -3.3720   -1.3900 c         1 MOL      0.644156
      3 O1          2.0250   -2.3340   -1.8540 o         1 MOL     -0.629128
      4 H1          3.4940   -4.1740   -1.9950 hc        1 MOL      0.020437
      5 H2          2.9680   -4.6600   -0.3650 hc        1 MOL      0.020437
      6 H3          2.1980   -5.3780   -1.8010 hc        1 MOL      0.020437
      7 N1          0.3280   -3.5030   -0.9820 n         1 MOL     -0.209474
      8 C3         -0.4230   -4.6190   -0.6450 c3        1 MOL     -0.256950
      9 C4         -1.1180   -5.2580   -1.8680 c         1 MOL      0.484543
     10 O2         -1.6320   -6.3810   -1.7550 o         1 MOL     -0.514949
     11 C5         -1.4030   -4.2130    0.5010 c3        1 MOL     -0.018632
     12 C6         -0.7080   -3.6520    1.7150 c         1 MOL      0.532410
     13 O3         -0.8350   -2.3890    1.9720 o         1 MOL     -0.631580
     14 O4         -0.0760   -4.4840    2.4470 o         1 MOL     -0.631580
     15 H4         -0.1860   -2.6400   -0.8800 hn        1 MOL      0.174332
     16 H5          0.2110   -5.3720   -0.1760 h1        1 MOL      0.115533
     17 H6         -2.0250   -5.0370    0.8260 hc        1 MOL      0.046168
     18 H7         -2.1600   -3.5160    0.1270 hc        1 MOL      0.046168
     19 N2         -1.2840   -4.5000   -2.9920 n         1 MOL     -0.179072
     20 C7         -2.2160   -4.8270   -4.0210 c3        1 MOL     -0.374426
     21 C8         -3.6710   -4.8860   -3.5360 c         1 MOL      0.365220
     22 O5         -4.5190   -5.6570   -3.9390 o         1 MOL     -0.515682
     23 C9         -2.1140   -3.9530   -5.3130 c3        1 MOL      0.271697
     24 C10        -2.0530   -2.4380   -4.9360 c3        1 MOL     -0.028701
     25 C11        -0.8230   -4.3950   -6.0070 c3        1 MOL     -0.393920
     26 C12        -2.1670   -1.4770   -6.1220 c3        1 MOL     -0.086935
     27 H8         -1.0430   -3.5160   -2.9160 hn        1 MOL      0.071459
     28 H9         -1.9610   -5.8610   -4.2750 h1        1 MOL      0.168276
     29 H10        -2.9360   -4.0460   -6.0380 hc        1 MOL      0.011631
     30 H11        -1.1540   -2.2510   -4.3510 hc        1 MOL      0.034568
     31 H12        -2.9060   -2.2740   -4.2830 hc        1 MOL      0.034568
     32 H13        -0.0010   -3.8070   -5.5880 hc        1 MOL      0.089552
     33 H14        -0.7230   -5.4720   -5.9050 hc        1 MOL      0.089552
     34 H15        -0.8920   -4.1510   -7.0680 hc        1 MOL      0.089552
     35 H16        -1.7070   -1.8080   -7.0490 hc        1 MOL      0.010945
     36 H17        -3.2090   -1.3150   -6.3780 hc        1 MOL      0.010945
     37 H18        -1.8420   -0.5030   -5.7450 hc        1 MOL      0.010945
     38 N3         -4.0160   -3.9620   -2.5990 n         1 MOL     -0.026343
     39 C13        -5.1670   -3.9720   -1.7180 c3        1 MOL      0.160760
     40 C14        -4.8570   -3.0080   -0.5320 c         1 MOL     -0.116515
     41 O6         -4.3110   -1.9110   -0.7620 o         1 MOL     -0.456302
     42 C15        -6.3260   -3.3420   -2.4660 c3        1 MOL     -0.561335
     43 C16        -7.6670   -3.5850   -1.7680 c         1 MOL      0.785788
     44 O7         -7.7610   -4.5010   -0.9220 o         1 MOL     -0.658175
     45 O8         -8.6470   -2.8100   -1.9380 o         1 MOL     -0.658175
     46 H19        -3.4020   -3.1750   -2.4520 hn        1 MOL      0.202499
     47 H20        -5.3200   -5.0260   -1.4550 h1        1 MOL      0.085424
     48 H21        -6.4630   -3.8260   -3.4370 hc        1 MOL      0.152121
     49 H22        -6.0900   -2.2850   -2.6070 hc        1 MOL      0.152121
     50 N4         -5.3090   -3.3900    0.6410 n         1 MOL     -0.077382
     51 C17        -5.1150   -2.6390    1.8990 c3        1 MOL     -0.039525
     52 C18        -5.7240   -1.2170    1.9330 c         1 MOL      0.540920
     53 O9         -5.6420   -0.6180    2.9950 o         1 MOL     -0.564383
     54 H23        -5.8120   -4.2530    0.7640 hn        1 MOL      0.249139
     55 H24        -4.0410   -2.5240    2.0610 h1        1 MOL      0.066734
     56 H25        -5.4670   -3.2950    2.7000 h1        1 MOL      0.066734
     57 N5         -6.2510   -0.6980    0.8040 n         1 MOL     -0.268187
     58 C19        -6.7060    0.7030    0.5840 c3        1 MOL     -0.019112
     59 C20        -5.9760    1.3810   -0.6700 c         1 MOL      0.579425
     60 O10        -6.1880    0.9610   -1.8070 o         1 MOL     -0.571247
     61 C21        -8.2560    0.8040    0.4670 c3        1 MOL     -0.117634
     62 C22        -8.9350    0.1800    1.7230 c         1 MOL      0.626129
     63 O11        -9.2960   -1.0240    1.5290 o         1 MOL     -0.645457
     64 O12        -9.1640    1.0130    2.6520 o         1 MOL     -0.645457
     65 H26        -5.9310   -1.2190   -0.0090 hn        1 MOL      0.332770
     66 H27        -6.5160    1.3060    1.4730 h1        1 MOL      0.051574
     67 H28        -8.6440    0.2680   -0.4030 hc        1 MOL      0.037208
     68 H29        -8.5380    1.8550    0.3870 hc        1 MOL      0.037208
     69 N6         -5.0100    2.2770   -0.4930 n         1 MOL     -0.543774
     70 C23        -4.6830    3.0550    0.6980 c3        1 MOL      0.155093
     71 C24        -4.7170    4.5900    0.4790 c         1 MOL      0.532716
     72 O13        -5.2400    5.0470   -0.5250 o         1 MOL     -0.541043
     73 H30        -4.5550    2.6680   -1.3080 hn        1 MOL      0.299842
     74 H31        -3.6770    2.7450    0.9880 h1        1 MOL      0.048932
     75 H32        -5.3090    2.8190    1.5520 h1        1 MOL      0.048932
     76 N7         -4.1630    5.4770    1.3690 n         1 MOL     -0.487569
     77 C25        -3.4480    5.2180    2.6130 c3        1 MOL      0.100355
     78 C26        -2.2370    4.2750    2.5540 c         1 MOL      0.379346
     79 O14        -1.9150    3.6050    3.5720 o         1 MOL     -0.513093
     80 C27        -4.3980    4.9240    3.8040 c3        1 MOL     -0.130700
     81 C28        -5.3850    6.0050    4.2620 c3        1 MOL     -0.173138
     82 C29        -6.3320    5.4650    5.3350 c         1 MOL      0.621982
     83 N8         -6.5060    6.2220    6.3770 n         1 MOL     -0.733617
     84 O15        -7.0280    4.4120    5.2120 o         1 MOL     -0.525116
     85 H33        -4.2180    6.4120    0.9910 hn        1 MOL      0.277294
     86 H34        -2.9470    6.1360    2.9200 h1        1 MOL      0.045398
     87 H35        -3.7730    4.6740    4.6540 hc        1 MOL      0.080434
     88 H36        -4.9130    3.9930    3.5710 hc        1 MOL      0.080434
     89 H37        -5.9350    6.4380    3.4240 hc        1 MOL      0.052169
     90 H38        -4.7990    6.8430    4.6540 hc        1 MOL      0.052169
     91 H39        -6.1610    7.1550    6.5270 hn        1 MOL      0.329297
     92 H40        -7.1990    5.8920    7.0420 hn        1 MOL      0.329297
     93 N9         -1.6770    4.1880    1.3470 n         1 MOL     -0.260139
     94 C30        -0.6600    3.1520    0.9710 c3        1 MOL      0.066155
     95 C31        -0.8910    2.8060   -0.4690 c         1 MOL      0.551169
     96 O16        -1.5840    3.6100   -1.1620 o         1 MOL     -0.516867
     97 C32         0.7550    3.6480    1.1200 c3        1 MOL      0.067572
     98 C33         1.1980    3.7630    2.5820 c3        1 MOL     -0.301668
     99 C34         1.0920    4.9830    0.4410 c3        1 MOL     -0.301668
    100 H41        -2.0980    4.6760    0.5760 hn        1 MOL      0.170992
    101 H42        -0.7990    2.2220    1.5100 h1        1 MOL      0.105780
    102 H43         1.4120    2.9780    0.5810 hc        1 MOL      0.018635
    103 H44         0.6780    4.5660    3.0860 hc        1 MOL      0.096382
    104 H45         1.0280    2.7950    3.0500 hc        1 MOL      0.096382
    105 H46         2.2490    4.0770    2.5200 hc        1 MOL      0.096382
    106 H47         0.6220    5.8500    0.9070 hc        1 MOL      0.096382
    107 H48         2.1780    5.0500    0.5080 hc        1 MOL      0.096382
    108 H49         0.8480    4.9640   -0.6130 hc        1 MOL      0.096382
    109 N10        -0.3230    1.7340   -1.0230 n         1 MOL     -0.647231
    110 C35        -0.3030    1.5140   -2.4520 c3        1 MOL      0.076562
    111 C36         0.8080    2.1790   -3.2640 c         1 MOL      0.543143
    112 O17         0.8320    1.9120   -4.4930 o         1 MOL     -0.552014
    113 C37        -0.5330    0.0700   -2.8450 c3        1 MOL      0.032960
    114 C38        -1.7270   -0.6090   -2.1140 c         1 MOL      0.510049
    115 N11        -2.8960   -0.0240   -2.1480 n         1 MOL     -0.559819
    116 O18        -1.5920   -1.7240   -1.6550 o         1 MOL     -0.449280
    117 H50         0.2610    1.1250   -0.4570 hn        1 MOL      0.368069
    118 H51        -1.1920    1.9630   -2.8930 h1        1 MOL      0.036760
    119 H52         0.3930   -0.4430   -2.5960 hc        1 MOL      0.032781
    120 H53        -0.6480   -0.0310   -3.9290 hc        1 MOL      0.032781
    121 H54        -3.0430    0.8410   -2.6560 hn        1 MOL      0.313008
    122 H55        -3.6410   -0.5400   -1.7030 hn        1 MOL      0.313008
    123 N12         1.7870    2.8000   -2.5430 n         1 MOL     -0.217375
    124 C39         3.0730    3.0000   -3.0640 c3        1 MOL     -0.150075
    125 C40         4.1440    2.9720   -1.9720 c         1 MOL      0.556894
    126 O19         3.9340    3.3420   -0.7640 o         1 MOL     -0.483114
    127 C41         3.1580    4.3080   -3.8790 c3        1 MOL      0.081074
    128 C42         2.9020    5.5110   -2.9310 ca        1 MOL     -0.027434
    129 C43         3.9680    6.1170   -2.2620 ca        1 MOL     -0.112466
    130 C44         1.6410    6.0700   -2.8280 ca        1 MOL     -0.112466
    131 C45         3.7980    7.1580   -1.3890 ca        1 MOL     -0.256673
    132 C46         1.4000    7.1130   -1.9440 ca        1 MOL     -0.256673
    133 C47         2.4780    7.6550   -1.1900 ca        1 MOL      0.269042
    134 O20         2.2560    8.7200   -0.3100 oh        1 MOL     -0.465515
    135 H56         1.5690    3.1380   -1.6200 hn        1 MOL      0.123690
    136 H57         3.2240    2.1380   -3.7170 h1        1 MOL      0.092320
    137 H58         2.5000    4.3090   -4.7550 hc        1 MOL     -0.001096
    138 H59         4.0960    4.3650   -4.4250 hc        1 MOL     -0.001096
    139 H60         4.9450    5.7050   -2.4310 ha        1 MOL      0.109183
    140 H61         0.7890    5.6720   -3.3560 ha        1 MOL      0.109183
    141 H62         4.5880    7.6950   -0.8790 ha        1 MOL      0.159612
    142 H63         0.4210    7.5310   -1.7450 ha        1 MOL      0.159612
    143 H64         1.4430    9.1660   -0.5660 ho        1 MOL      0.328563
    144 N13         5.2870    2.5620   -2.3250 n         1 MOL     -0.364821
    145 C48         6.3570    2.4760   -1.3210 c3        1 MOL     -0.113049
    146 C49         7.1260    1.1790   -1.4590 c         1 MOL      0.684126
    147 O21         8.1400    1.0430   -2.1450 o         1 MOL     -0.560945
    148 C50         7.1850    3.7540   -1.5130 c3        1 MOL     -0.000104
    149 C51         8.3200    3.8090   -0.4870 c3        1 MOL      0.028904
    150 C52         7.9490    4.3620    0.9280 c         1 MOL      0.705596
    151 O22         8.4060    5.5220    1.1340 o         1 MOL     -0.729186
    152 O23         7.4900    3.6200    1.8120 o         1 MOL     -0.729186
    153 H65         5.4680    2.4080   -3.3110 hn        1 MOL      0.285948
    154 H66         5.9930    2.3950   -0.3040 h1        1 MOL      0.102845
    155 H67         6.6280    4.6930   -1.4550 hc        1 MOL      0.006286
    156 H68         7.5730    3.8090   -2.5370 hc        1 MOL      0.006286
    157 H69         9.0240    4.5300   -0.9250 hc        1 MOL     -0.060286
    158 H70         8.9470    2.9330   -0.3860 hc        1 MOL     -0.060286
    159 N14         6.5790    0.1310   -0.8820 n         1 MOL     -0.595686
    160 C53         6.7750   -1.2440   -1.2810 c3        1 MOL      0.113130
    161 C54         6.2930   -1.5520   -2.7040 c         1 MOL      0.365544
    162 O24         6.8000   -2.4200   -3.4130 o         1 MOL     -0.526586
    163 C55         5.9260   -2.1360   -0.3180 c3        1 MOL     -0.245853
    164 C56         6.4100   -2.0790    1.1260 c3        1 MOL     -0.117901
    165 C57         5.6270   -3.0000    2.0530 c         1 MOL      0.797599
    166 O25         5.9870   -4.1390    2.2470 o         1 MOL     -0.774533
    167 O26         4.5930   -2.6310    2.5840 o         1 MOL     -0.774533
    168 H71         5.7730    0.4190   -0.3400 hn        1 MOL      0.306754
    169 H72         7.8090   -1.5950   -1.2740 h1        1 MOL      0.106909
    170 H73         6.0400   -3.1820   -0.6260 hc        1 MOL      0.119638
    171 H74         4.8750   -1.8400   -0.3320 hc        1 MOL      0.119638
    172 H75         6.2790   -1.1020    1.5860 hc        1 MOL      0.042181
    173 H76         7.4680   -2.3190    1.2050 hc        1 MOL      0.042181
    174 N15         5.2460   -0.7800   -3.1990 n         1 MOL     -0.129323
    175 C58         4.7530   -0.7500   -4.5820 c3        1 MOL     -0.121923
    176 H77         5.1650   -1.5960   -5.1330 h1        1 MOL      0.064132
    177 H78         3.6640   -0.8130   -4.5820 h1        1 MOL      0.064132
    178 H79         5.0640    0.1790   -5.0590 h1        1 MOL      0.064132
    179 H80         4.8880   -0.0550   -2.5980 hn        1 MOL      0.150573
    180 Ca1         4.3880   -4.5170    4.4870 Ca        1 MOL      1.866072
    181 O27         1.9050   -3.9520    3.8480 oh        1 MOL     -0.896312
    182 H81         1.1260   -4.2300    3.3650 ho        1 MOL      0.410041
    183 H82         1.7740   -3.0180    4.0070 ho        1 MOL      0.410041
    184 O28         3.7270   -2.0180    5.3040 oh        1 MOL     -0.896312
    185 H83         2.9000   -1.8820    5.7650 ho        1 MOL      0.410041
    186 H84         4.0730   -1.1440    5.1630 ho        1 MOL      0.410041
    187 O29         6.5760   -2.4300    5.4880 oh        1 MOL     -0.896312
    188 H85         7.3720   -2.4890    6.0050 ho        1 MOL      0.410041
    189 H86         6.5060   -1.5020    5.2480 ho        1 MOL      0.410041
    190 O30         4.2850   -6.7460    2.9240 oh        1 MOL     -0.896312
    191 H87         3.6700   -7.4360    2.6870 ho        1 MOL      0.410041
    192 H88         4.9230   -6.7400    2.2120 ho        1 MOL      0.410041
    193 O31         4.7080   -4.4440    7.2880 oh        1 MOL     -0.896312
    194 H89         5.0990   -3.7480    7.8170 ho        1 MOL      0.410041
    195 H90         4.7900   -5.2340    7.8270 ho        1 MOL      0.410041
    196 O32         2.8710   -6.3480    5.6260 oh        1 MOL     -0.896312
    197 H91         2.0290   -6.1250    6.0380 ho        1 MOL      0.410041
    198 H92         2.8820   -7.3020    5.6160 ho        1 MOL      0.410041
    199 O33         6.5980   -6.0110    4.8080 oh        1 MOL     -0.896312
    200 H93         6.6160   -6.9570    4.6650 ho        1 MOL      0.410041
    201 H94         7.4900   -5.7840    5.0530 ho        1 MOL      0.410041
@<TRIPOS>BOND
     1    1    2 1   
     2    1    4 1   
     3    1    5 1   
     4    1    6 1   
     5    2    3 2   
     6    2    7 1   
     7    7    8 1   
     8    7   15 1   
     9    8    9 1   
    10    8   11 1   
    11    8   16 1   
    12    9   10 2   
    13    9   19 1   
    14   11   12 1   
    15   11   17 1   
    16   11   18 1   
    17   12   13 1   
    18   12   14 1   
    19   19   20 1   
    20   19   27 1   
    21   20   21 1   
    22   20   23 1   
    23   20   28 1   
    24   21   22 2   
    25   21   38 1   
    26   23   24 1   
    27   23   25 1   
    28   23   29 1   
    29   24   26 1   
    30   24   30 1   
    31   24   31 1   
    32   25   32 1   
    33   25   33 1   
    34   25   34 1   
    35   26   35 1   
    36   26   36 1   
    37   26   37 1   
    38   38   39 1   
    39   38   46 1   
    40   39   40 1   
    41   39   42 1   
    42   39   47 1   
    43   40   41 2   
    44   40   50 1   
    45   42   43 1   
    46   42   48 1   
    47   42   49 1   
    48   43   44 1   
    49   43   45 1   
    50   50   51 1   
    51   50   54 1   
    52   51   52 1   
    53   51   55 1   
    54   51   56 1   
    55   52   53 2   
    56   52   57 1   
    57   57   58 1   
    58   57   65 1   
    59   58   59 1   
    60   58   61 1   
    61   58   66 1   
    62   59   60 2   
    63   59   69 1   
    64   61   62 1   
    65   61   67 1   
    66   61   68 1   
    67   62   63 1   
    68   62   64 1   
    69   69   70 1   
    70   69   73 1   
    71   70   71 1   
    72   70   74 1   
    73   70   75 1   
    74   71   72 2   
    75   71   76 1   
    76   76   77 1   
    77   76   85 1   
    78   77   78 1   
    79   77   80 1   
    80   77   86 1   
    81   78   79 2   
    82   78   93 1   
    83   80   81 1   
    84   80   87 1   
    85   80   88 1   
    86   81   82 1   
    87   81   89 1   
    88   81   90 1   
    89   82   83 1   
    90   82   84 2   
    91   83   91 1   
    92   83   92 1   
    93   93   94 1   
    94   93  100 1   
    95   94   95 1   
    96   94   97 1   
    97   94  101 1   
    98   95   96 2   
    99   95  109 1   
   100   97   98 1   
   101   97   99 1   
   102   97  102 1   
   103   98  103 1   
   104   98  104 1   
   105   98  105 1   
   106   99  106 1   
   107   99  107 1   
   108   99  108 1   
   109  109  110 1   
   110  109  117 1   
   111  110  111 1   
   112  110  113 1   
   113  110  118 1   
   114  111  112 2   
   115  111  123 1   
   116  113  114 1   
   117  113  119 1   
   118  113  120 1   
   119  114  115 1   
   120  114  116 2   
   121  115  121 1   
   122  115  122 1   
   123  123  124 1   
   124  123  135 1   
   125  124  125 1   
   126  124  127 1   
   127  124  136 1   
   128  125  126 2   
   129  125  144 1   
   130  127  128 1   
   131  127  137 1   
   132  127  138 1   
   133  128  129 ar  
   134  128  130 ar  
   135  129  131 ar  
   136  129  139 1   
   137  130  132 ar  
   138  130  140 1   
   139  131  133 ar  
   140  131  141 1   
   141  132  133 ar  
   142  132  142 1   
   143  133  134 1   
   144  134  143 1   
   145  144  145 1   
   146  144  153 1   
   147  145  146 1   
   148  145  148 1   
   149  145  154 1   
   150  146  147 2   
   151  146  159 1   
   152  148  149 1   
   153  148  155 1   
   154  148  156 1   
   155  149  150 1   
   156  149  157 1   
   157  149  158 1   
   158  150  151 1   
   159  150  152 1   
   160  159  160 1   
   161  159  168 1   
   162  160  161 1   
   163  160  163 1   
   164  160  169 1   
   165  161  162 2   
   166  161  174 1   
   167  163  164 1   
   168  163  170 1   
   169  163  171 1   
   170  164  165 1   
   171  164  172 1   
   172  164  173 1   
   173  165  166 1   
   174  165  167 1   
   175  174  175 1   
   176  174  179 1   
   177  175  176 1   
   178  175  177 1   
   179  175  178 1   
   180  181  182 1   
   181  181  183 1   
   182  184  185 1   
   183  184  186 1   
   184  187  188 1   
   185  187  189 1   
   186  190  191 1   
   187  190  192 1   
   188  193  194 1   
   189  193  195 1   
   190  196  197 1   
   191  196  198 1   
   192  199  200 1   
   193  199  201 1   
@<TRIPOS>SUBSTRUCTURE
     1 MOL         1 TEMP              0 ****  ****    0 ROOT
