@<TRIPOS>MOLECULE
MOL
  188   182     1     0     0
SMALL
resp


@<TRIPOS>ATOM
      1 C1          4.4660    3.6430    1.6410 c3        1 MOL     -0.356059
      2 C2          5.6430    3.0700    0.9150 c         1 MOL      0.807675
      3 O1          5.3940    2.1660    0.1180 o         1 MOL     -0.527444
      4 H1          3.6000    3.6520    0.9790 hc        1 MOL      0.074032
      5 H2          4.2460    3.0320    2.5160 hc        1 MOL      0.074032
      6 H3          4.6920    4.6620    1.9540 hc        1 MOL      0.074032
      7 N1          6.8900    3.5820    1.2300 n         1 MOL     -0.670127
      8 C3          8.1750    2.9950    0.7010 c3        1 MOL      0.114570
      9 C4          8.4300    1.5180    0.9420 c         1 MOL      0.441752
     10 O2          9.2130    0.9070    0.2270 o         1 MOL     -0.480808
     11 C5          8.4820    3.4410   -0.8120 c3        1 MOL     -0.339759
     12 C6          8.3230    4.9560   -1.1340 c         1 MOL      0.781897
     13 O3          9.1680    5.8140   -0.8160 o         1 MOL     -0.676534
     14 O4          7.3250    5.2680   -1.8030 o         1 MOL     -0.676534
     15 H4          6.9030    4.4120    1.8190 hn        1 MOL      0.343937
     16 H5          8.9540    3.4510    1.3110 h1        1 MOL      0.045228
     17 H6          7.8370    2.8190   -1.4430 hc        1 MOL      0.115040
     18 H7          9.5070    3.2220   -1.1150 hc        1 MOL      0.115040
     19 N2          7.7340    0.9000    1.9370 n         1 MOL     -0.390317
     20 C7          7.8480   -0.5270    2.3620 c3        1 MOL      0.208860
     21 C8          6.8530   -1.5080    1.7660 c         1 MOL      0.439881
     22 O5          7.0180   -2.7380    1.9240 o         1 MOL     -0.587425
     23 C9          7.9540   -0.6380    3.9300 c3        1 MOL     -0.204527
     24 C10         9.2840   -0.1660    4.5390 c3        1 MOL      0.054456
     25 C11         9.3410   -0.5060    6.1000 c3        1 MOL     -0.014867
     26 C12         8.5910    0.5340    6.9750 c3        1 MOL     -0.075716
     27 N3          8.9860    1.8510    6.5690 n4        1 MOL     -0.250751
     28 H8          7.1360    1.4790    2.5040 hn        1 MOL      0.192951
     29 H9          8.7630   -0.9360    1.9430 h1        1 MOL      0.082408
     30 H10         7.9610   -1.7080    4.1450 hc        1 MOL      0.063978
     31 H11         7.0920   -0.1490    4.3880 hc        1 MOL      0.063978
     32 H12         9.4960    0.8810    4.3350 hc        1 MOL      0.004070
     33 H13        10.0700   -0.7340    4.0370 hc        1 MOL      0.004070
     34 H14        10.3760   -0.3540    6.4140 hc        1 MOL      0.052011
     35 H15         8.9810   -1.4690    6.4580 hc        1 MOL      0.052011
     36 H16         8.7820    0.4400    8.0460 hx        1 MOL      0.106581
     37 H17         7.5070    0.4110    6.9500 hx        1 MOL      0.106581
     38 H18         8.5550    2.5900    7.1060 hn        1 MOL      0.241062
     39 H19         9.9700    1.9990    6.6970 hn        1 MOL      0.241062
     40 H20         8.8050    2.0060    5.5910 hn        1 MOL      0.241062
     41 N4          5.8700   -0.9870    1.0310 n         1 MOL     -0.283496
     42 C13         4.7980   -1.7450    0.3350 c3        1 MOL     -0.002816
     43 C14         5.1980   -1.9140   -1.1420 c         1 MOL      0.577561
     44 O6          5.5900   -0.8960   -1.7070 o         1 MOL     -0.521637
     45 C15         3.4060   -1.0970    0.6650 c3        1 MOL     -0.093914
     46 C16         2.2740   -1.6870   -0.0880 c         1 MOL      0.831266
     47 O7          2.4530   -1.9840   -1.2950 o         1 MOL     -0.721013
     48 O8          1.2520   -2.1760    0.4250 o         1 MOL     -0.721013
     49 H21         5.7250    0.0110    1.0790 hn        1 MOL      0.207866
     50 H22         4.6870   -2.7610    0.7130 h1        1 MOL      0.087906
     51 H23         3.4290   -0.0270    0.4780 hc        1 MOL     -0.003213
     52 H24         3.2460   -1.2060    1.7420 hc        1 MOL     -0.003213
     53 N5          5.0360   -3.0720   -1.7290 n         1 MOL     -0.404843
     54 C17         5.4650   -3.3390   -3.1190 c3        1 MOL     -0.193328
     55 C18         4.7090   -2.5010   -4.2430 c         1 MOL      0.405306
     56 O9          5.2100   -2.4890   -5.3910 o         1 MOL     -0.554065
     57 H25         4.6670   -3.8260   -1.1730 hn        1 MOL      0.248531
     58 H26         5.4570   -4.4160   -3.2680 h1        1 MOL      0.128002
     59 H27         6.5040   -3.0070   -3.2310 h1        1 MOL      0.128002
     60 N6          3.7260   -1.6700   -3.9410 n         1 MOL     -0.026768
     61 C19         3.3070   -0.4680   -4.6580 c3        1 MOL      0.088963
     62 C20         2.8880    0.7500   -3.8120 c         1 MOL      0.307514
     63 O10         3.0280    1.9440   -4.2180 o         1 MOL     -0.525135
     64 C21         2.1230   -0.8000   -5.5850 c3        1 MOL     -0.372260
     65 C22         0.9550   -1.4700   -4.7940 c         1 MOL      0.658973
     66 N7         -0.2320   -0.8740   -4.9060 n         1 MOL     -0.657058
     67 O11         1.0440   -2.4100   -4.0150 o         1 MOL     -0.705192
     68 H28         3.4160   -1.8290   -2.9910 hn        1 MOL      0.101814
     69 H29         4.1400   -0.1120   -5.2650 h1        1 MOL      0.107755
     70 H30         2.5080   -1.5550   -6.2800 hc        1 MOL      0.120087
     71 H31         1.7300    0.1190   -6.0310 hc        1 MOL      0.120087
     72 H32        -0.3440   -0.0910   -5.5340 hn        1 MOL      0.329993
     73 H33        -1.0250   -1.4130   -4.5720 hn        1 MOL      0.329993
     74 N8          2.3740    0.5100   -2.6210 n         1 MOL      0.043368
     75 C23         1.8270    1.5870   -1.7420 c3        1 MOL     -0.271088
     76 C24         0.3370    1.8680   -1.7920 c         1 MOL      0.764512
     77 O12        -0.4360    0.8840   -2.0760 o         1 MOL     -0.643544
     78 H34         2.4680   -0.4470   -2.3140 hn        1 MOL      0.116453
     79 H35         2.3750    2.4980   -1.9860 h1        1 MOL      0.129099
     80 H36         2.1510    1.3210   -0.7290 h1        1 MOL      0.129099
     81 N9         -0.0660    3.0830   -1.5660 n         1 MOL     -0.694094
     82 C25        -1.4020    3.5040   -1.2790 c3        1 MOL      0.485125
     83 C26        -2.0480    2.7930   -0.0690 c         1 MOL      0.340254
     84 O13        -1.3840    2.1860    0.7360 o         1 MOL     -0.514141
     85 C27        -1.4490    5.0010   -1.1760 c3        1 MOL     -0.346013
     86 C28        -2.8020    5.5920   -0.8750 ca        1 MOL      0.062299
     87 C29        -3.9590    5.3930   -1.6640 ca        1 MOL     -0.135414
     88 C30        -2.9520    6.3260    0.3300 ca        1 MOL     -0.135414
     89 C31        -5.2060    5.8910   -1.2610 ca        1 MOL     -0.307158
     90 C32        -4.1860    6.9350    0.6330 ca        1 MOL     -0.307158
     91 C33        -5.3380    6.7280   -0.1720 ca        1 MOL      0.442194
     92 O14        -6.5160    7.3670    0.1280 oh        1 MOL     -0.549830
     93 H37         0.6730    3.7450   -1.3940 hn        1 MOL      0.323122
     94 H38        -2.0010    3.3020   -2.1640 h1        1 MOL     -0.002387
     95 H39        -1.2580    5.4100   -2.1730 hc        1 MOL      0.127799
     96 H40        -0.6930    5.3040   -0.4430 hc        1 MOL      0.127799
     97 H41        -3.9260    4.6850   -2.4810 ha        1 MOL      0.139910
     98 H42        -2.1220    6.4940    1.0030 ha        1 MOL      0.139910
     99 H43        -6.0310    5.6200   -1.9050 ha        1 MOL      0.150354
    100 H44        -4.2770    7.4960    1.5590 ha        1 MOL      0.150354
    101 H45        -6.4660    8.0190    0.8360 ho        1 MOL      0.402817
    102 N10        -3.3600    2.8930    0.0710 n         1 MOL     -0.091765
    103 C34        -4.2560    2.3050    1.0770 c3        1 MOL      0.046991
    104 C35        -5.3650    1.5930    0.3160 c         1 MOL      0.191250
    105 O15        -5.6150    0.3890    0.5220 o         1 MOL     -0.335232
    106 C36        -4.7670    3.3730    2.0910 c3        1 MOL      0.091692
    107 C37        -3.5480    3.8160    2.9250 c3        1 MOL     -0.122316
    108 C38        -5.9250    2.9100    2.9140 c3        1 MOL     -0.303680
    109 C39        -3.8720    5.0830    3.7700 c3        1 MOL     -0.157921
    110 H46        -3.7550    3.3780   -0.7210 hn        1 MOL     -0.018327
    111 H47        -3.8320    1.5060    1.6880 h1        1 MOL      0.087492
    112 H48        -5.0890    4.2720    1.5640 hc        1 MOL     -0.000766
    113 H49        -2.6960    4.0180    2.2690 hc        1 MOL      0.085522
    114 H50        -3.2670    3.0230    3.6150 hc        1 MOL      0.085522
    115 H51        -6.1920    3.6630    3.6590 hc        1 MOL      0.087120
    116 H52        -6.8420    2.8560    2.3200 hc        1 MOL      0.087120
    117 H53        -5.8750    1.9770    3.4810 hc        1 MOL      0.087120
    118 H54        -2.9610    5.5620    4.1250 hc        1 MOL      0.039307
    119 H55        -4.5100    5.7650    3.2020 hc        1 MOL      0.039307
    120 H56        -4.5320    4.9340    4.6230 hc        1 MOL      0.039307
    121 N11        -5.8640    2.2880   -0.6850 n         1 MOL     -0.177332
    122 C40        -6.6420    1.6560   -1.7800 c3        1 MOL      0.074653
    123 C41        -7.8080    0.8300   -1.2660 c         1 MOL      0.193242
    124 O16        -8.2070   -0.1190   -1.9740 o         1 MOL     -0.471023
    125 C42        -7.1120    2.6250   -2.8390 c3        1 MOL      0.150175
    126 O17        -5.9340    3.1640   -3.4610 oh        1 MOL     -0.564940
    127 H57        -5.7080    3.2890   -0.7590 hn        1 MOL      0.228006
    128 H58        -6.0410    0.9260   -2.3160 h1        1 MOL      0.130686
    129 H59        -7.6250    3.4490   -2.3270 h1        1 MOL      0.021411
    130 H60        -7.7420    2.1760   -3.6050 h1        1 MOL      0.021411
    131 H61        -6.3180    3.7090   -4.1460 ho        1 MOL      0.396846
    132 N12        -8.3170    1.1020   -0.0670 n         1 MOL     -0.086304
    133 C43        -9.2650    0.2560    0.7000 c3        1 MOL      0.224838
    134 C44        -9.0060   -1.2600    0.8150 c         1 MOL      0.397517
    135 O18        -9.9050   -2.0950    0.8070 o         1 MOL     -0.498015
    136 C45       -10.6310    0.7040    0.2070 c3        1 MOL     -0.463624
    137 H62        -8.0170    1.9650    0.3750 hn        1 MOL      0.138283
    138 H63        -9.1200    0.5630    1.7360 h1        1 MOL      0.024377
    139 H64       -10.6720    1.7770    0.0070 hc        1 MOL      0.122776
    140 H65       -10.8520    0.2570   -0.7610 hc        1 MOL      0.122776
    141 H66       -11.4930    0.3160    0.7680 hc        1 MOL      0.122776
    142 N13        -7.6910   -1.6300    0.8410 n         1 MOL     -0.375201
    143 C46        -7.2590   -3.0380    1.0040 c3        1 MOL      0.455231
    144 C47        -6.0110   -3.2240    1.9870 c         1 MOL      0.215643
    145 O19        -5.2170   -2.3220    2.1040 o         1 MOL     -0.400415
    146 C48        -6.8740   -3.4900   -0.4520 c3        1 MOL     -0.271861
    147 H67        -6.9830   -0.9340    0.9750 hn        1 MOL      0.113143
    148 H68        -8.0320   -3.7260    1.3410 h1        1 MOL     -0.055170
    149 H69        -6.4770   -4.4950   -0.3870 hc        1 MOL      0.084570
    150 H70        -7.8180   -3.4480   -1.0120 hc        1 MOL      0.084570
    151 H71        -6.1150   -2.8130   -0.8540 hc        1 MOL      0.084570
    152 N14        -5.6620   -4.4250    2.4120 n         1 MOL     -0.377884
    153 C49        -4.4230   -4.7410    3.2140 c3        1 MOL     -0.077714
    154 C50        -4.4220   -4.0340    4.5290 c         1 MOL      0.379337
    155 O20        -3.4490   -3.8890    5.2630 o         1 MOL     -0.490295
    156 C51        -3.1180   -4.4840    2.3850 c3        1 MOL      0.443161
    157 C52        -3.0290   -5.3030    1.0710 c3        1 MOL     -0.148362
    158 C53        -1.8050   -4.9460    0.1980 c         1 MOL      0.751539
    159 O21        -1.9150   -4.8640   -1.0740 o         1 MOL     -0.786188
    160 O22        -0.7180   -4.6570    0.7070 o         1 MOL     -0.786188
    161 H72        -6.2530   -5.1700    2.0710 hn        1 MOL      0.268957
    162 H73        -4.4370   -5.8240    3.3560 h1        1 MOL      0.063140
    163 H74        -2.3190   -4.6350    3.1180 hc        1 MOL     -0.062014
    164 H75        -3.1000   -3.4360    2.0890 hc        1 MOL     -0.062014
    165 H76        -3.9450   -5.2210    0.4860 hc        1 MOL     -0.026369
    166 H77        -2.8150   -6.3230    1.3900 hc        1 MOL     -0.026369
    167 N15        -5.6070   -3.7000    5.0540 n         1 MOL     -0.214800
    168 C54        -5.8630   -2.7560    6.2140 c3        1 MOL     -0.108650
    169 H78        -4.9420   -2.2270    6.4620 h1        1 MOL      0.077868
    170 H79        -6.6310   -2.0340    5.9340 h1        1 MOL      0.077868
    171 H80        -6.1990   -3.3260    7.0800 h1        1 MOL      0.077868
    172 H81        -6.4490   -4.0930    4.6660 hn        1 MOL      0.187353
    173 Ca1         0.6250   -3.9090   -1.3940 Ca        1 MOL      1.846518
    174 O23        -0.9600   -1.7560   -1.2720 oh        1 MOL     -0.836899
    175 H82        -0.9040   -0.8570   -1.5800 ho        1 MOL      0.414610
    176 H83        -1.7620   -1.7790   -0.7440 ho        1 MOL      0.414610
    177 O24         0.8140   -6.6680   -1.0930 oh        1 MOL     -0.836899
    178 H84         0.8500   -7.1830   -1.8920 ho        1 MOL      0.414610
    179 H85         0.5870   -7.2940   -0.4150 ho        1 MOL      0.414610
    180 O25         2.3560   -5.1800   -2.9220 oh        1 MOL     -0.836899
    181 H86         3.1570   -5.6970   -2.7910 ho        1 MOL      0.414610
    182 H87         2.1230   -5.3330   -3.8380 ho        1 MOL      0.414610
    183 O26        -0.2690   -4.7890   -3.6100 oh        1 MOL     -0.836899
    184 H88        -0.1660   -4.0150   -4.1610 ho        1 MOL      0.414610
    185 H89        -0.6610   -5.4430   -4.1890 ho        1 MOL      0.414610
    186 O27         3.1470   -4.7770   -0.0740 oh        1 MOL     -0.836899
    187 H90         3.6060   -5.4350   -0.5940 ho        1 MOL      0.414610
    188 H91         3.4490   -4.9270    0.8250 ho        1 MOL      0.414610
@<TRIPOS>BOND
     1    1    2 1   
     2    1    4 1   
     3    1    5 1   
     4    1    6 1   
     5    2    3 2   
     6    2    7 1   
     7    7    8 1   
     8    7   15 1   
     9    8    9 1   
    10    8   11 1   
    11    8   16 1   
    12    9   10 2   
    13    9   19 1   
    14   11   12 1   
    15   11   17 1   
    16   11   18 1   
    17   12   13 1   
    18   12   14 1   
    19   19   20 1   
    20   19   28 1   
    21   20   21 1   
    22   20   23 1   
    23   20   29 1   
    24   21   22 2   
    25   21   41 1   
    26   23   24 1   
    27   23   30 1   
    28   23   31 1   
    29   24   25 1   
    30   24   32 1   
    31   24   33 1   
    32   25   26 1   
    33   25   34 1   
    34   25   35 1   
    35   26   27 1   
    36   26   36 1   
    37   26   37 1   
    38   27   38 1   
    39   27   39 1   
    40   27   40 1   
    41   41   42 1   
    42   41   49 1   
    43   42   43 1   
    44   42   45 1   
    45   42   50 1   
    46   43   44 2   
    47   43   53 1   
    48   45   46 1   
    49   45   51 1   
    50   45   52 1   
    51   46   47 1   
    52   46   48 1   
    53   53   54 1   
    54   53   57 1   
    55   54   55 1   
    56   54   58 1   
    57   54   59 1   
    58   55   56 2   
    59   55   60 1   
    60   60   61 1   
    61   60   68 1   
    62   61   62 1   
    63   61   64 1   
    64   61   69 1   
    65   62   63 2   
    66   62   74 1   
    67   64   65 1   
    68   64   70 1   
    69   64   71 1   
    70   65   66 1   
    71   65   67 2   
    72   66   72 1   
    73   66   73 1   
    74   74   75 1   
    75   74   78 1   
    76   75   76 1   
    77   75   79 1   
    78   75   80 1   
    79   76   77 2   
    80   76   81 1   
    81   81   82 1   
    82   81   93 1   
    83   82   83 1   
    84   82   85 1   
    85   82   94 1   
    86   83   84 2   
    87   83  102 1   
    88   85   86 1   
    89   85   95 1   
    90   85   96 1   
    91   86   87 ar  
    92   86   88 ar  
    93   87   89 ar  
    94   87   97 1   
    95   88   90 ar  
    96   88   98 1   
    97   89   91 ar  
    98   89   99 1   
    99   90   91 ar  
   100   90  100 1   
   101   91   92 1   
   102   92  101 1   
   103  102  103 1   
   104  102  110 1   
   105  103  104 1   
   106  103  106 1   
   107  103  111 1   
   108  104  105 2   
   109  104  121 1   
   110  106  107 1   
   111  106  108 1   
   112  106  112 1   
   113  107  109 1   
   114  107  113 1   
   115  107  114 1   
   116  108  115 1   
   117  108  116 1   
   118  108  117 1   
   119  109  118 1   
   120  109  119 1   
   121  109  120 1   
   122  121  122 1   
   123  121  127 1   
   124  122  123 1   
   125  122  125 1   
   126  122  128 1   
   127  123  124 2   
   128  123  132 1   
   129  125  126 1   
   130  125  129 1   
   131  125  130 1   
   132  126  131 1   
   133  132  133 1   
   134  132  137 1   
   135  133  134 1   
   136  133  136 1   
   137  133  138 1   
   138  134  135 2   
   139  134  142 1   
   140  136  139 1   
   141  136  140 1   
   142  136  141 1   
   143  142  143 1   
   144  142  147 1   
   145  143  144 1   
   146  143  146 1   
   147  143  148 1   
   148  144  145 2   
   149  144  152 1   
   150  146  149 1   
   151  146  150 1   
   152  146  151 1   
   153  152  153 1   
   154  152  161 1   
   155  153  154 1   
   156  153  156 1   
   157  153  162 1   
   158  154  155 2   
   159  154  167 1   
   160  156  157 1   
   161  156  163 1   
   162  156  164 1   
   163  157  158 1   
   164  157  165 1   
   165  157  166 1   
   166  158  159 1   
   167  158  160 1   
   168  167  168 1   
   169  167  172 1   
   170  168  169 1   
   171  168  170 1   
   172  168  171 1   
   173  174  175 1   
   174  174  176 1   
   175  177  178 1   
   176  177  179 1   
   177  180  181 1   
   178  180  182 1   
   179  183  184 1   
   180  183  185 1   
   181  186  187 1   
   182  186  188 1   
@<TRIPOS>SUBSTRUCTURE
     1 MOL         1 TEMP              0 ****  ****    0 ROOT
