@<TRIPOS>MOLECULE
MOL
  175   173     1     0     0
SMALL
resp


@<TRIPOS>ATOM
      1 C1         -5.8230    7.9360    2.4040 c3        1 MOL     -0.319582
      2 C2         -6.4360    7.3140    1.1160 c         1 MOL      0.630909
      3 O1         -5.9850    7.6660   -0.0140 o         1 MOL     -0.553520
      4 H1         -5.0480    8.6520    2.1280 hc        1 MOL      0.078811
      5 H2         -6.6040    8.4470    2.9680 hc        1 MOL      0.078811
      6 H3         -5.3870    7.1480    3.0180 hc        1 MOL      0.078811
      7 N1         -7.4820    6.4400    1.2540 n         1 MOL     -0.562062
      8 C3         -8.2140    5.7980    0.1530 c3        1 MOL      0.274535
      9 C4         -7.3450    4.7980   -0.6550 c         1 MOL      0.504539
     10 O2         -7.5830    4.5500   -1.7900 o         1 MOL     -0.533359
     11 C5         -9.4840    5.1070    0.6980 c3        1 MOL     -0.373155
     12 C6        -10.4150    4.5290   -0.3300 c         1 MOL      0.781545
     13 O3        -11.0940    5.2290   -1.0710 o         1 MOL     -0.742459
     14 O4        -10.5370    3.2420   -0.3800 o         1 MOL     -0.742459
     15 H4         -7.7870    6.2340    2.1930 hn        1 MOL      0.292028
     16 H5         -8.4800    6.5790   -0.5510 h1        1 MOL      0.043352
     17 H6        -10.0280    5.9100    1.2010 hc        1 MOL      0.043874
     18 H7         -9.1790    4.3550    1.4210 hc        1 MOL      0.043874
     19 N2         -6.2620    4.3590   -0.0830 n         1 MOL     -0.520810
     20 C7         -5.2910    3.4860   -0.7520 c3        1 MOL      0.332755
     21 C8         -4.5440    2.5870    0.2060 c         1 MOL      0.470265
     22 O5         -3.8860    3.1110    1.1320 o         1 MOL     -0.531913
     23 C9         -4.3540    4.3650   -1.6320 c3        1 MOL     -0.220082
     24 H8         -6.1160    4.5760    0.8990 hn        1 MOL      0.252852
     25 H9         -5.7780    2.8780   -1.5220 h1        1 MOL      0.036038
     26 H10        -3.9750    3.6420   -2.3520 hc        1 MOL      0.061999
     27 H11        -4.8960    5.1940   -2.0730 hc        1 MOL      0.061999
     28 H12        -3.5270    4.8250   -1.0880 hc        1 MOL      0.061999
     29 N3         -4.5400    1.2380   -0.0160 n         1 MOL     -0.467339
     30 C10        -5.2050    0.5200   -1.0810 c3        1 MOL     -0.048083
     31 C11        -5.5530   -0.9160   -0.6240 c         1 MOL      0.478369
     32 O6         -4.8730   -1.4490    0.2800 o         1 MOL     -0.489441
     33 C12        -4.3210    0.4720   -2.3180 c3        1 MOL     -0.044356
     34 C13        -2.9020    0.0410   -2.0310 c         1 MOL      0.644822
     35 O7         -2.0060    0.7800   -1.5870 o         1 MOL     -0.682155
     36 O8         -2.6610   -1.1580   -2.1160 o         1 MOL     -0.682155
     37 H13        -3.8910    0.7370    0.5740 hn        1 MOL      0.300696
     38 H14        -6.1090    0.9890   -1.4500 h1        1 MOL      0.070552
     39 H15        -4.1530    1.4210   -2.8230 hc        1 MOL     -0.004831
     40 H16        -4.7780   -0.2350   -3.0070 hc        1 MOL     -0.004831
     41 N4         -6.6170   -1.4850   -1.1960 n         1 MOL     -0.350305
     42 C14        -7.1940   -2.7270   -0.7110 c3        1 MOL     -0.012492
     43 C15        -7.0630   -4.0540   -1.5030 c         1 MOL      0.513669
     44 O9         -8.0620   -4.7490   -1.7860 o         1 MOL     -0.556142
     45 H17        -7.1080   -0.9340   -1.8710 hn        1 MOL      0.320168
     46 H18        -8.2570   -2.5630   -0.5460 h1        1 MOL      0.068812
     47 H19        -6.7240   -2.9430    0.2500 h1        1 MOL      0.068812
     48 N5         -5.8880   -4.4560   -1.9420 n         1 MOL     -0.501896
     49 C16        -4.5050   -4.3010   -1.3960 c3        1 MOL      0.093959
     50 C17        -4.3160   -5.0730   -0.0670 c         1 MOL      0.543255
     51 O10        -4.1910   -6.3030   -0.0880 o         1 MOL     -0.555839
     52 C18        -3.3890   -4.6750   -2.5530 c3        1 MOL     -0.121342
     53 C19        -2.0100   -4.2570   -2.1490 c         1 MOL      0.672415
     54 N6         -1.0410   -4.4300   -2.9630 n         1 MOL     -0.686154
     55 O11        -1.7970   -3.6470   -1.0540 o         1 MOL     -0.741058
     56 H20        -6.0190   -5.2270   -2.5870 hn        1 MOL      0.309138
     57 H21        -4.3240   -3.2570   -1.1550 h1        1 MOL      0.072390
     58 H22        -3.6720   -4.0210   -3.3790 hc        1 MOL      0.041525
     59 H23        -3.4310   -5.7160   -2.8650 hc        1 MOL      0.041525
     60 H24        -1.2620   -5.0220   -3.7550 hn        1 MOL      0.338022
     61 H25        -0.1280   -4.1700   -2.6110 hn        1 MOL      0.338022
     62 N7         -4.1970   -4.3410    1.0290 n         1 MOL     -0.219153
     63 C20        -3.9880   -4.8630    2.3640 c3        1 MOL     -0.420375
     64 C21        -2.5860   -5.3650    2.6150 c         1 MOL      0.610899
     65 O12        -2.3860   -5.9740    3.6940 o         1 MOL     -0.588416
     66 H26        -4.3900   -3.3550    0.9210 hn        1 MOL      0.210902
     67 H27        -4.6670   -5.7060    2.5320 h1        1 MOL      0.171890
     68 H28        -4.3300   -4.0200    2.9680 h1        1 MOL      0.171890
     69 N8         -1.5740   -5.0260    1.8220 n         1 MOL     -0.325717
     70 C22        -0.0850   -5.2410    2.0190 c3        1 MOL     -0.023528
     71 C23         0.5800   -3.9330    1.8180 c         1 MOL      0.506793
     72 O13         0.0650   -2.9620    1.2650 o         1 MOL     -0.669816
     73 C24         0.4480   -6.2530    0.9840 c3        1 MOL      0.284692
     74 C25        -0.0170   -7.7280    1.0570 c3        1 MOL     -0.335699
     75 O14         0.2520   -6.0020   -0.3620 oh        1 MOL     -0.575414
     76 H29        -1.7980   -4.6990    0.8900 hn        1 MOL      0.292086
     77 H30         0.1260   -5.5450    3.0490 h1        1 MOL      0.062711
     78 H31         1.5170   -6.3270    1.1690 h1        1 MOL      0.007188
     79 H32         0.9320   -5.3650   -0.6010 ho        1 MOL      0.427845
     80 H33         0.4900   -8.5300    0.5210 hc        1 MOL      0.080726
     81 H34         0.0160   -8.1760    2.0530 hc        1 MOL      0.080726
     82 H35        -1.0740   -7.6690    0.8050 hc        1 MOL      0.080726
     83 N9          1.9070   -3.8890    2.1950 n         1 MOL     -0.075376
     84 C26         2.6980   -2.6860    2.3200 c3        1 MOL     -0.078313
     85 C27         3.8630   -2.7830    1.3130 c         1 MOL      0.333347
     86 O15         4.9220   -3.3410    1.6100 o         1 MOL     -0.551490
     87 C28         3.1710   -2.3630    3.7540 c3        1 MOL      0.333200
     88 C29         3.5600   -0.8730    3.7820 c3        1 MOL     -0.032155
     89 C30         2.0700   -2.6460    4.8070 c3        1 MOL     -0.398227
     90 C31         4.2610   -0.4940    5.1110 c3        1 MOL     -0.219985
     91 H36         2.2550   -4.7530    2.5880 hn        1 MOL      0.150561
     92 H37         2.0210   -1.8770    2.0410 h1        1 MOL      0.070194
     93 H38         4.0340   -2.9620    4.0580 hc        1 MOL     -0.055922
     94 H39         2.5820   -0.3790    3.7040 hc        1 MOL      0.033174
     95 H40         4.2560   -0.6060    2.9940 hc        1 MOL      0.033174
     96 H41         2.4760   -2.5100    5.8130 hc        1 MOL      0.088026
     97 H42         1.2510   -1.9390    4.6800 hc        1 MOL      0.088026
     98 H43         1.6620   -3.6520    4.6980 hc        1 MOL      0.088026
     99 H44         5.2330   -0.9780    5.1530 hc        1 MOL      0.047572
    100 H45         4.3470    0.5980    5.1300 hc        1 MOL      0.047572
    101 H46         3.6800   -0.8210    5.9790 hc        1 MOL      0.047572
    102 N10         3.7610   -2.1430    0.1530 n         1 MOL     -0.073607
    103 C32         4.4070   -2.4550   -1.1270 c3        1 MOL     -0.186431
    104 C33         5.3940   -1.4150   -1.7620 c         1 MOL      0.657892
    105 O16         5.7650   -1.5190   -2.9460 o         1 MOL     -0.558699
    106 C34         3.3460   -2.8080   -2.1310 c3        1 MOL     -0.067512
    107 C35         2.3530   -3.7360   -1.5170 c         1 MOL      0.684471
    108 O17         2.6460   -4.8780   -1.0390 o         1 MOL     -0.689943
    109 O18         1.1960   -3.3190   -1.4270 o         1 MOL     -0.689943
    110 H47         2.9750   -1.5040    0.0920 hn        1 MOL      0.085274
    111 H48         4.9540   -3.4050   -1.1120 h1        1 MOL      0.135602
    112 H49         3.7850   -3.2270   -3.0440 hc        1 MOL      0.001703
    113 H50         2.8540   -1.9310   -2.5420 hc        1 MOL      0.001703
    114 N11         5.9730   -0.5440   -0.9450 n         1 MOL     -0.571427
    115 C36         6.9000    0.4500   -1.3670 c3        1 MOL      0.156814
    116 C37         6.5880    1.7360   -0.5850 c         1 MOL      0.446053
    117 O19         6.5100    1.7110    0.6110 o         1 MOL     -0.508074
    118 C38         8.2480   -0.1170   -1.0160 c3        1 MOL     -0.107032
    119 C39         9.3990    0.7980   -1.3620 ca        1 MOL      0.078552
    120 C40         9.8070    1.8200   -0.4660 ca        1 MOL     -0.187482
    121 C41         9.9510    0.7860   -2.6610 ca        1 MOL     -0.187482
    122 C42        10.6420    2.8320   -0.9870 ca        1 MOL     -0.087090
    123 C43        10.7460    1.8340   -3.1260 ca        1 MOL     -0.087090
    124 C44        11.0400    2.8920   -2.2750 ca        1 MOL     -0.098849
    125 H51         5.6610   -0.4720    0.0180 hn        1 MOL      0.317818
    126 H52         6.8650    0.6240   -2.4440 h1        1 MOL      0.009992
    127 H53         8.3750   -1.1210   -1.3960 hc        1 MOL      0.075981
    128 H54         8.3040   -0.2620    0.0630 hc        1 MOL      0.075981
    129 H55         9.4230    1.8720    0.5500 ha        1 MOL      0.130792
    130 H56         9.5520    0.0450   -3.3470 ha        1 MOL      0.130792
    131 H57        10.9970    3.6700   -0.4080 ha        1 MOL      0.091210
    132 H58        11.0520    1.8800   -4.1650 ha        1 MOL      0.091210
    133 H59        11.7070    3.6100   -2.7140 ha        1 MOL      0.089413
    134 N12         6.4520    2.9180   -1.2200 n         1 MOL      0.061413
    135 C45         6.5610    4.1990   -0.5970 c3        1 MOL     -0.320019
    136 C46         5.3800    4.5980    0.2990 c         1 MOL      0.628676
    137 O20         5.4310    5.5340    1.0810 o         1 MOL     -0.551119
    138 C47         6.7340    5.1720   -1.7560 c3        1 MOL     -0.051799
    139 C48         5.9640    4.5710   -2.8980 c3        1 MOL      0.105487
    140 C49         6.1520    3.0740   -2.7020 c3        1 MOL     -0.645267
    141 H60         7.4790    4.1410   -0.0280 h1        1 MOL      0.122574
    142 H61         6.5020    6.2200   -1.5570 hc        1 MOL      0.070517
    143 H62         7.8030    5.0740   -1.9630 hc        1 MOL      0.070517
    144 H63         4.9340    4.9200   -2.8500 hc        1 MOL      0.024093
    145 H64         6.4990    4.9350   -3.7770 hc        1 MOL      0.024093
    146 H65         5.3220    2.4340   -2.9920 h1        1 MOL      0.234354
    147 H66         7.0260    2.9030   -3.3240 h1        1 MOL      0.234354
    148 N13         4.2460    3.8150    0.2860 n         1 MOL     -0.289838
    149 C50         3.0660    4.1330    1.0900 c3        1 MOL     -0.322827
    150 C51         3.3040    4.3190    2.6200 c         1 MOL      0.522325
    151 O21         2.4170    4.7260    3.3980 o         1 MOL     -0.536476
    152 C52         1.9780    3.1270    0.6940 c3        1 MOL      0.049800
    153 C53         2.2810    1.6630    1.2950 c3        1 MOL     -0.284014
    154 C54         1.3910    0.6060    0.6840 c         1 MOL      0.576901
    155 O22         1.8440   -0.2390   -0.1290 o         1 MOL     -0.627430
    156 O23         0.2010    0.4740    1.0300 o         1 MOL     -0.627430
    157 H67         4.1930    3.0310   -0.3410 hn        1 MOL      0.272547
    158 H68         2.7210    5.1150    0.7620 h1        1 MOL      0.160540
    159 H69         1.9750    2.9730   -0.3800 hc        1 MOL      0.068002
    160 H70         0.9710    3.4160    1.0050 hc        1 MOL      0.068002
    161 H71         2.0320    1.6760    2.3630 hc        1 MOL      0.084082
    162 H72         3.3150    1.3710    1.1000 hc        1 MOL      0.084082
    163 N14         4.4630    3.9440    3.1000 n         1 MOL     -0.159211
    164 C55         4.8230    4.1800    4.5110 c3        1 MOL     -0.135545
    165 H73         5.5090    5.0250    4.5740 h1        1 MOL      0.075362
    166 H74         3.9220    4.4000    5.0840 h1        1 MOL      0.075362
    167 H75         5.3040    3.2910    4.9180 h1        1 MOL      0.075362
    168 H76         5.1150    3.6020    2.4030 hn        1 MOL      0.187164
    169 Ca1        -0.4030   -1.3710   -0.6930 Ca        1 MOL      1.781031
    170 O24         0.4690   -0.3670   -3.0150 oh        1 MOL     -0.835898
    171 H77         0.5700   -0.8220   -3.8520 ho        1 MOL      0.407070
    172 H78         1.1270    0.3320   -3.0480 ho        1 MOL      0.407070
    173 O25        -2.4060   -0.6090    1.0960 oh        1 MOL     -0.835898
    174 H79        -2.2060   -0.4650    2.0230 ho        1 MOL      0.407070
    175 H80        -3.3220   -0.8920    1.0890 ho        1 MOL      0.407070
@<TRIPOS>BOND
     1    1    2 1   
     2    1    4 1   
     3    1    5 1   
     4    1    6 1   
     5    2    3 2   
     6    2    7 1   
     7    7    8 1   
     8    7   15 1   
     9    8    9 1   
    10    8   11 1   
    11    8   16 1   
    12    9   10 2   
    13    9   19 1   
    14   11   12 1   
    15   11   17 1   
    16   11   18 1   
    17   12   13 1   
    18   12   14 1   
    19   19   20 1   
    20   19   24 1   
    21   20   21 1   
    22   20   23 1   
    23   20   25 1   
    24   21   22 2   
    25   21   29 1   
    26   23   26 1   
    27   23   27 1   
    28   23   28 1   
    29   29   30 1   
    30   29   37 1   
    31   30   31 1   
    32   30   33 1   
    33   30   38 1   
    34   31   32 2   
    35   31   41 1   
    36   33   34 1   
    37   33   39 1   
    38   33   40 1   
    39   34   35 1   
    40   34   36 1   
    41   41   42 1   
    42   41   45 1   
    43   42   43 1   
    44   42   46 1   
    45   42   47 1   
    46   43   44 2   
    47   43   48 1   
    48   48   49 1   
    49   48   56 1   
    50   49   50 1   
    51   49   52 1   
    52   49   57 1   
    53   50   51 2   
    54   50   62 1   
    55   52   53 1   
    56   52   58 1   
    57   52   59 1   
    58   53   54 1   
    59   53   55 2   
    60   54   60 1   
    61   54   61 1   
    62   62   63 1   
    63   62   66 1   
    64   63   64 1   
    65   63   67 1   
    66   63   68 1   
    67   64   65 2   
    68   64   69 1   
    69   69   70 1   
    70   69   76 1   
    71   70   71 1   
    72   70   73 1   
    73   70   77 1   
    74   71   72 2   
    75   71   83 1   
    76   73   74 1   
    77   73   75 1   
    78   73   78 1   
    79   74   80 1   
    80   74   81 1   
    81   74   82 1   
    82   75   79 1   
    83   83   84 1   
    84   83   91 1   
    85   84   85 1   
    86   84   87 1   
    87   84   92 1   
    88   85   86 2   
    89   85  102 1   
    90   87   88 1   
    91   87   89 1   
    92   87   93 1   
    93   88   90 1   
    94   88   94 1   
    95   88   95 1   
    96   89   96 1   
    97   89   97 1   
    98   89   98 1   
    99   90   99 1   
   100   90  100 1   
   101   90  101 1   
   102  102  103 1   
   103  102  110 1   
   104  103  104 1   
   105  103  106 1   
   106  103  111 1   
   107  104  105 2   
   108  104  114 1   
   109  106  107 1   
   110  106  112 1   
   111  106  113 1   
   112  107  108 1   
   113  107  109 1   
   114  114  115 1   
   115  114  125 1   
   116  115  116 1   
   117  115  118 1   
   118  115  126 1   
   119  116  117 2   
   120  116  134 1   
   121  118  119 1   
   122  118  127 1   
   123  118  128 1   
   124  119  120 ar  
   125  119  121 ar  
   126  120  122 ar  
   127  120  129 1   
   128  121  123 ar  
   129  121  130 1   
   130  122  124 ar  
   131  122  131 1   
   132  123  124 ar  
   133  123  132 1   
   134  124  133 1   
   135  134  135 1   
   136  134  140 1   
   137  135  136 1   
   138  135  138 1   
   139  135  141 1   
   140  136  137 2   
   141  136  148 1   
   142  138  139 1   
   143  138  142 1   
   144  138  143 1   
   145  139  140 1   
   146  139  144 1   
   147  139  145 1   
   148  140  146 1   
   149  140  147 1   
   150  148  149 1   
   151  148  157 1   
   152  149  150 1   
   153  149  152 1   
   154  149  158 1   
   155  150  151 2   
   156  150  163 1   
   157  152  153 1   
   158  152  159 1   
   159  152  160 1   
   160  153  154 1   
   161  153  161 1   
   162  153  162 1   
   163  154  155 1   
   164  154  156 1   
   165  163  164 1   
   166  163  168 1   
   167  164  165 1   
   168  164  166 1   
   169  164  167 1   
   170  170  171 1   
   171  170  172 1   
   172  173  174 1   
   173  173  175 1   
@<TRIPOS>SUBSTRUCTURE
     1 MOL         1 TEMP              0 ****  ****    0 ROOT
