@<TRIPOS>MOLECULE
MOL
  192   187     1     0     0
SMALL
resp


@<TRIPOS>ATOM
      1 C1          9.7010    0.3970    1.8580 c3        1 MOL     -0.359774
      2 C2          8.4210    0.0230    1.0770 c         1 MOL      0.695753
      3 O1          7.3390   -0.1520    1.6400 o         1 MOL     -0.662980
      4 H1         10.0850    1.3490    1.4910 hc        1 MOL      0.092360
      5 H2          9.4670    0.4840    2.9190 hc        1 MOL      0.092360
      6 H3         10.4550   -0.3770    1.7130 hc        1 MOL      0.092360
      7 N1          8.5330   -0.2600   -0.2570 n         1 MOL     -0.547834
      8 C3          7.4400   -0.6810   -1.1540 c3        1 MOL     -0.021877
      9 C4          7.0040   -2.1340   -0.8680 c         1 MOL      0.423852
     10 O2          6.9710   -3.0010   -1.7660 o         1 MOL     -0.449341
     11 C5          7.8180   -0.4150   -2.6720 c3        1 MOL     -0.260318
     12 C6          9.0870   -1.1330   -3.2190 c         1 MOL      0.730593
     13 O3          9.1670   -0.9190   -4.4560 o         1 MOL     -0.667823
     14 O4          9.8550   -1.7490   -2.4810 o         1 MOL     -0.667823
     15 H4          9.4490   -0.1170   -0.6470 hn        1 MOL      0.308345
     16 H5          6.6130   -0.0200   -0.9000 h1        1 MOL      0.160748
     17 H6          8.0840    0.6420   -2.7230 hc        1 MOL      0.091066
     18 H7          6.9290   -0.6700   -3.2510 hc        1 MOL      0.091066
     19 N2          6.4240   -2.4070    0.3030 n         1 MOL     -0.256520
     20 C7          5.7470   -3.7330    0.6790 c3        1 MOL      0.019555
     21 C8          4.3260   -3.8180    0.0980 c         1 MOL      0.513840
     22 O5          3.9400   -4.8230   -0.4570 o         1 MOL     -0.542893
     23 C9          5.6820   -3.9320    2.2220 c3        1 MOL     -0.006369
     24 C10         7.0170   -3.8660    2.9980 c3        1 MOL     -0.101039
     25 C11         8.1430   -4.8500    2.6100 c3        1 MOL      0.007711
     26 C12         9.4860   -4.5230    3.1840 c3        1 MOL     -0.097903
     27 N3          9.5110   -4.5140    4.6640 n4        1 MOL     -0.179989
     28 H8          6.5850   -1.6630    0.9700 hn        1 MOL      0.237349
     29 H9          6.2850   -4.5880    0.2710 h1        1 MOL      0.057914
     30 H10         5.1450   -4.8640    2.4380 hc        1 MOL      0.014179
     31 H11         4.9190   -3.2480    2.5850 hc        1 MOL      0.014179
     32 H12         6.8590   -3.9500    4.0770 hc        1 MOL      0.024203
     33 H13         7.3680   -2.8500    2.8250 hc        1 MOL      0.024203
     34 H14         8.2080   -4.8510    1.5180 hc        1 MOL      0.050067
     35 H15         7.9110   -5.8320    3.0060 hc        1 MOL      0.050067
     36 H16         9.6240   -3.4790    2.9050 hx        1 MOL      0.119715
     37 H17        10.2650   -5.1460    2.7410 hx        1 MOL      0.119715
     38 H18         9.0260   -3.8330    5.2290 hn        1 MOL      0.245230
     39 H19         9.1810   -5.4270    4.9670 hn        1 MOL      0.245230
     40 H20        10.4820   -4.5260    4.9210 hn        1 MOL      0.245230
     41 N4          3.4760   -2.7850    0.1570 n         1 MOL     -0.334387
     42 C13         3.5670   -1.4950    0.8980 c3        1 MOL      0.148581
     43 C14         3.8460   -0.3380   -0.0890 c         1 MOL      0.043310
     44 O6          3.8830   -0.4650   -1.2870 o         1 MOL     -0.347527
     45 C15         2.3010   -1.3020    1.7330 c3        1 MOL     -0.386012
     46 C16         1.1210   -1.6980    0.9540 c         1 MOL      0.608078
     47 O7          0.7800   -1.1800   -0.1630 o         1 MOL     -0.639403
     48 O8          0.3950   -2.5940    1.4450 o         1 MOL     -0.639403
     49 H21         2.6610   -2.9550   -0.4200 hn        1 MOL      0.335064
     50 H22         4.3670   -1.3480    1.6210 h1        1 MOL      0.106973
     51 H23         2.1720   -0.2900    2.1120 hc        1 MOL      0.109883
     52 H24         2.4570   -2.1080    2.4620 hc        1 MOL      0.109883
     53 N5          4.2220    0.8170    0.4490 n         1 MOL     -0.237625
     54 C17         4.3520    2.0330   -0.3330 c3        1 MOL      0.004024
     55 C18         3.0410    2.5650   -0.9660 c         1 MOL      0.561266
     56 O9          1.9660    1.9380   -1.0640 o         1 MOL     -0.480489
     57 H25         4.2160    0.9340    1.4510 hn        1 MOL      0.258724
     58 H26         5.0890    2.0300   -1.1280 h1        1 MOL      0.028601
     59 H27         4.6550    2.9130    0.2400 h1        1 MOL      0.028601
     60 N6          3.1820    3.8250   -1.3840 n         1 MOL     -0.348992
     61 C19         2.1540    4.6530   -2.0670 c3        1 MOL      0.131132
     62 C20         2.5430    6.1360   -2.0880 c         1 MOL      0.465516
     63 O10         3.7500    6.4430   -1.9200 o         1 MOL     -0.530773
     64 C21         1.8230    4.2560   -3.5430 c3        1 MOL     -0.223531
     65 C22         1.0820    2.9200   -3.6560 c         1 MOL      0.636056
     66 O11        -0.0370    2.7490   -3.0900 o         1 MOL     -0.660450
     67 O12         1.6400    2.0190   -4.3210 o         1 MOL     -0.660450
     68 H28         4.0640    4.3040   -1.2740 hn        1 MOL      0.248512
     69 H29         1.2070    4.6390   -1.5270 h1        1 MOL      0.109332
     70 H30         2.7680    4.1240   -4.0740 hc        1 MOL      0.058925
     71 H31         1.1280    5.0050   -3.9250 hc        1 MOL      0.058925
     72 N7          1.6070    7.1010   -2.2780 n         1 MOL     -0.493373
     73 C23         0.1280    6.9500   -2.3760 c3        1 MOL     -0.008945
     74 C24        -0.4450    6.4630   -1.1510 c         1 MOL      0.701402
     75 O13         0.0890    6.7250   -0.0870 o         1 MOL     -0.536555
     76 H32         1.8670    8.0730   -2.3210 hn        1 MOL      0.333217
     77 H33        -0.1670    6.3970   -3.2680 h1        1 MOL      0.061533
     78 H34        -0.3060    7.9420   -2.4940 h1        1 MOL      0.061533
     79 N8         -1.6330    5.8100   -1.2950 n         1 MOL     -0.667945
     80 C25        -2.2370    5.1080   -0.1760 c3        1 MOL      0.039962
     81 C26        -1.3820    3.9740    0.4180 c         1 MOL      0.602636
     82 O14        -0.8440    3.1660   -0.3890 o         1 MOL     -0.718674
     83 C27        -3.5940    4.5110   -0.5580 c3        1 MOL      0.500251
     84 C28        -4.6380    5.4930   -1.1490 c3        1 MOL     -0.255910
     85 O15        -4.2710    3.9390    0.5220 oh        1 MOL     -0.669572
     86 H35        -1.9030    5.5650   -2.2280 hn        1 MOL      0.313130
     87 H36        -2.4380    5.7860    0.6580 h1        1 MOL      0.065362
     88 H37        -3.4790    3.8190   -1.3780 h1        1 MOL     -0.004948
     89 H38        -4.9010    3.2760    0.2080 ho        1 MOL      0.398305
     90 H39        -4.2020    6.1760   -1.8860 hc        1 MOL      0.053289
     91 H40        -5.4750    4.9980   -1.6220 hc        1 MOL      0.053289
     92 H41        -5.0370    6.0980   -0.3400 hc        1 MOL      0.053289
     93 N9         -1.3130    3.9620    1.7160 n         1 MOL     -0.568259
     94 C29        -0.6690    2.9180    2.5270 c3        1 MOL      0.009940
     95 C30        -1.1950    1.5350    2.2370 c         1 MOL      0.681588
     96 O16        -0.8660    0.8580    1.3050 o         1 MOL     -0.611682
     97 C31         0.8860    3.0840    2.4780 c3        1 MOL      0.322442
     98 C32         1.3860    4.5560    2.5740 c3        1 MOL     -0.010352
     99 C33         1.4750    2.2120    3.5420 c3        1 MOL     -0.421518
    100 C34         2.9030    4.7900    2.6820 c3        1 MOL     -0.249691
    101 H42        -1.6780    4.7630    2.2100 hn        1 MOL      0.324631
    102 H43        -0.8930    3.1920    3.5640 h1        1 MOL      0.048468
    103 H44         1.2040    2.7780    1.4850 hc        1 MOL     -0.050986
    104 H45         0.8560    4.9500    3.4390 hc        1 MOL      0.003724
    105 H46         1.1030    5.0780    1.6640 hc        1 MOL      0.003724
    106 H47         1.0000    1.2310    3.6020 hc        1 MOL      0.089495
    107 H48         2.5550    2.1570    3.4080 hc        1 MOL      0.089495
    108 H49         1.3120    2.6890    4.5020 hc        1 MOL      0.089495
    109 H50         3.3430    4.3630    1.7880 hc        1 MOL      0.070737
    110 H51         3.0530    5.8740    2.6420 hc        1 MOL      0.070737
    111 H52         3.4290    4.4810    3.5820 hc        1 MOL      0.070737
    112 N10        -2.0390    1.0240    3.1010 n         1 MOL     -0.439358
    113 C35        -2.5840   -0.3400    3.0320 c3        1 MOL     -0.005740
    114 C36        -4.1460   -0.4780    3.1890 c         1 MOL      0.488918
    115 O17        -4.6540   -1.5580    3.4710 o         1 MOL     -0.570737
    116 C37        -1.8590   -1.1910    4.0540 c3        1 MOL      0.441092
    117 C38        -1.8570   -0.6140    5.5170 c3        1 MOL     -0.316261
    118 O18        -0.5580   -1.3410    3.7620 oh        1 MOL     -0.569271
    119 H53        -2.4070    1.5180    3.9040 hn        1 MOL      0.246365
    120 H54        -2.3200   -0.7400    2.0670 h1        1 MOL      0.086571
    121 H55        -2.2690   -2.1990    4.0880 h1        1 MOL     -0.016078
    122 H56        -0.5370   -1.9140    3.0000 ho        1 MOL      0.351525
    123 H57        -1.3020    0.3210    5.5390 hc        1 MOL      0.067730
    124 H58        -2.8830   -0.3390    5.7910 hc        1 MOL      0.067730
    125 H59        -1.4400   -1.3930    6.1520 hc        1 MOL      0.067730
    126 N11        -4.9170    0.5670    2.8730 n         1 MOL     -0.308814
    127 C39        -6.3780    0.4520    2.9040 c3        1 MOL      0.133529
    128 C40        -6.8830   -0.1860    1.5280 c         1 MOL      0.417664
    129 O19        -7.0990    0.5420    0.5960 o         1 MOL     -0.495628
    130 C41        -6.9080    1.8270    2.9940 c3        1 MOL      0.429741
    131 C42        -8.4470    1.8010    3.1220 c3        1 MOL     -0.524472
    132 O20        -6.4010    2.4250    4.1250 oh        1 MOL     -0.641047
    133 H60        -4.5490    1.4930    2.7110 hn        1 MOL      0.195095
    134 H61        -6.7870   -0.2050    3.6650 h1        1 MOL      0.042136
    135 H62        -6.4860    2.3980    2.1620 h1        1 MOL     -0.038059
    136 H63        -6.3850    3.3700    3.9300 ho        1 MOL      0.403543
    137 H64        -8.8220    2.8110    3.2300 hc        1 MOL      0.134859
    138 H65        -8.9370    1.3630    2.2500 hc        1 MOL      0.134859
    139 H66        -8.8110    1.2390    3.9780 hc        1 MOL      0.134859
    140 N12        -6.9310   -1.5050    1.5580 n         1 MOL     -0.556024
    141 C43        -6.8540   -2.3480    0.3590 c3        1 MOL      0.109285
    142 C44        -5.5290   -2.1110   -0.4690 c         1 MOL      0.726856
    143 O21        -5.0280   -1.0390   -0.6220 o         1 MOL     -0.567917
    144 C45        -8.0740   -2.1630   -0.5690 c3        1 MOL     -0.564734
    145 C46        -9.4020   -2.4480    0.0950 c3        1 MOL      0.325357
    146 C47       -10.7370   -2.6460   -0.7050 c3        1 MOL     -0.421803
    147 C48       -10.7980   -3.8670   -1.6890 c3        1 MOL      0.238677
    148 N13       -12.0220   -3.7920   -2.4890 n4        1 MOL     -0.274413
    149 H67        -6.6920   -1.9630    2.4320 hn        1 MOL      0.352265
    150 H68        -6.8110   -3.3980    0.6480 h1        1 MOL      0.072647
    151 H69        -7.9810   -2.6960   -1.5080 hc        1 MOL      0.189851
    152 H70        -8.1510   -1.1030   -0.8310 hc        1 MOL      0.189851
    153 H71        -9.6350   -1.6050    0.7490 hc        1 MOL     -0.002529
    154 H72        -9.2170   -3.2120    0.8530 hc        1 MOL     -0.002529
    155 H73       -10.8190   -1.6870   -1.2040 hc        1 MOL      0.116682
    156 H74       -11.5120   -2.6650    0.0570 hc        1 MOL      0.116682
    157 H75       -10.7750   -4.8010   -1.1340 hx        1 MOL      0.021364
    158 H76        -9.8800   -3.8210   -2.2630 hx        1 MOL      0.021364
    159 H77       -12.1440   -4.6980   -2.9250 hn        1 MOL      0.256869
    160 H78       -12.7720   -3.7190   -1.8190 hn        1 MOL      0.256869
    161 H79       -12.0370   -3.0020   -3.1210 hn        1 MOL      0.256869
    162 N14        -4.9230   -3.1710   -0.9880 n         1 MOL     -0.693059
    163 C49        -3.6990   -3.1180   -1.8380 c3        1 MOL      0.464218
    164 C50        -2.4760   -2.5830   -1.0420 c         1 MOL      0.121930
    165 O22        -1.8450   -1.5810   -1.4410 o         1 MOL     -0.464879
    166 C51        -3.4260   -4.5120   -2.5280 c3        1 MOL     -0.014246
    167 C52        -4.2260   -4.9130   -3.7150 c3        1 MOL     -0.208413
    168 C53        -3.6860   -6.2460   -4.2330 c         1 MOL      0.707209
    169 O23        -4.0740   -7.3200   -3.7640 o         1 MOL     -0.645215
    170 O24        -2.8160   -6.1450   -5.1610 o         1 MOL     -0.645215
    171 H80        -5.2940   -4.1020   -0.8500 hn        1 MOL      0.294530
    172 H81        -3.7760   -2.4220   -2.6770 h1        1 MOL     -0.039110
    173 H82        -3.3900   -5.3080   -1.7920 hc        1 MOL      0.049259
    174 H83        -2.3950   -4.5070   -2.8890 hc        1 MOL      0.049259
    175 H84        -4.3190   -4.1000   -4.4400 hc        1 MOL      0.005032
    176 H85        -5.2580   -5.1500   -3.4590 hc        1 MOL      0.005032
    177 N15        -2.0260   -3.1670    0.0830 n         1 MOL     -0.187087
    178 C54        -2.4320   -4.3820    0.8320 c3        1 MOL     -0.038081
    179 H86        -3.0470   -5.0140    0.1920 h1        1 MOL      0.040135
    180 H87        -1.5430   -4.9330    1.1400 h1        1 MOL      0.040135
    181 H88        -3.0040   -4.0910    1.7130 h1        1 MOL      0.040135
    182 H89        -1.3040   -2.5850    0.4940 hn        1 MOL      0.299466
    183 Ca1        -0.3990    0.7130   -1.4520 Ca        1 MOL      1.809011
    184 O25        -1.7160    0.2380   -4.0740 oh        1 MOL     -0.889186
    185 H90        -2.3120    0.7160   -4.6510 ho        1 MOL      0.424457
    186 H91        -1.6860   -0.6410   -4.4440 ho        1 MOL      0.424457
    187 O26        -3.1240    0.9150   -1.0040 oh        1 MOL     -0.889186
    188 H92        -3.2640   -0.0150   -0.7950 ho        1 MOL      0.424457
    189 H93        -3.9920    1.2470   -1.2300 ho        1 MOL      0.424457
    190 O27         1.0400   -0.5650   -3.3670 oh        1 MOL     -0.889186
    191 H94         0.7370   -0.9740   -4.1820 ho        1 MOL      0.424457
    192 H95         1.7870   -0.0310   -3.6310 ho        1 MOL      0.424457
@<TRIPOS>BOND
     1    1    2 1   
     2    1    4 1   
     3    1    5 1   
     4    1    6 1   
     5    2    3 2   
     6    2    7 1   
     7    7    8 1   
     8    7   15 1   
     9    8    9 1   
    10    8   11 1   
    11    8   16 1   
    12    9   10 2   
    13    9   19 1   
    14   11   12 1   
    15   11   17 1   
    16   11   18 1   
    17   12   13 1   
    18   12   14 1   
    19   19   20 1   
    20   19   28 1   
    21   20   21 1   
    22   20   23 1   
    23   20   29 1   
    24   21   22 2   
    25   21   41 1   
    26   23   24 1   
    27   23   30 1   
    28   23   31 1   
    29   24   25 1   
    30   24   32 1   
    31   24   33 1   
    32   25   26 1   
    33   25   34 1   
    34   25   35 1   
    35   26   27 1   
    36   26   36 1   
    37   26   37 1   
    38   27   38 1   
    39   27   39 1   
    40   27   40 1   
    41   41   42 1   
    42   41   49 1   
    43   42   43 1   
    44   42   45 1   
    45   42   50 1   
    46   43   44 2   
    47   43   53 1   
    48   45   46 1   
    49   45   51 1   
    50   45   52 1   
    51   46   47 1   
    52   46   48 1   
    53   53   54 1   
    54   53   57 1   
    55   54   55 1   
    56   54   58 1   
    57   54   59 1   
    58   55   56 2   
    59   55   60 1   
    60   60   61 1   
    61   60   68 1   
    62   61   62 1   
    63   61   64 1   
    64   61   69 1   
    65   62   63 2   
    66   62   72 1   
    67   64   65 1   
    68   64   70 1   
    69   64   71 1   
    70   65   66 1   
    71   65   67 1   
    72   72   73 1   
    73   72   76 1   
    74   73   74 1   
    75   73   77 1   
    76   73   78 1   
    77   74   75 2   
    78   74   79 1   
    79   79   80 1   
    80   79   86 1   
    81   80   81 1   
    82   80   83 1   
    83   80   87 1   
    84   81   82 2   
    85   81   93 1   
    86   83   84 1   
    87   83   85 1   
    88   83   88 1   
    89   84   90 1   
    90   84   91 1   
    91   84   92 1   
    92   85   89 1   
    93   93   94 1   
    94   93  101 1   
    95   94   95 1   
    96   94   97 1   
    97   94  102 1   
    98   95   96 2   
    99   95  112 1   
   100   97   98 1   
   101   97   99 1   
   102   97  103 1   
   103   98  100 1   
   104   98  104 1   
   105   98  105 1   
   106   99  106 1   
   107   99  107 1   
   108   99  108 1   
   109  100  109 1   
   110  100  110 1   
   111  100  111 1   
   112  112  113 1   
   113  112  119 1   
   114  113  114 1   
   115  113  116 1   
   116  113  120 1   
   117  114  115 2   
   118  114  126 1   
   119  116  117 1   
   120  116  118 1   
   121  116  121 1   
   122  117  123 1   
   123  117  124 1   
   124  117  125 1   
   125  118  122 1   
   126  126  127 1   
   127  126  133 1   
   128  127  128 1   
   129  127  130 1   
   130  127  134 1   
   131  128  129 2   
   132  128  140 1   
   133  130  131 1   
   134  130  132 1   
   135  130  135 1   
   136  131  137 1   
   137  131  138 1   
   138  131  139 1   
   139  132  136 1   
   140  140  141 1   
   141  140  149 1   
   142  141  142 1   
   143  141  144 1   
   144  141  150 1   
   145  142  143 2   
   146  142  162 1   
   147  144  145 1   
   148  144  151 1   
   149  144  152 1   
   150  145  146 1   
   151  145  153 1   
   152  145  154 1   
   153  146  147 1   
   154  146  155 1   
   155  146  156 1   
   156  147  148 1   
   157  147  157 1   
   158  147  158 1   
   159  148  159 1   
   160  148  160 1   
   161  148  161 1   
   162  162  163 1   
   163  162  171 1   
   164  163  164 1   
   165  163  166 1   
   166  163  172 1   
   167  164  165 2   
   168  164  177 1   
   169  166  167 1   
   170  166  173 1   
   171  166  174 1   
   172  167  168 1   
   173  167  175 1   
   174  167  176 1   
   175  168  169 1   
   176  168  170 1   
   177  177  178 1   
   178  177  182 1   
   179  178  179 1   
   180  178  180 1   
   181  178  181 1   
   182  184  185 1   
   183  184  186 1   
   184  187  188 1   
   185  187  189 1   
   186  190  191 1   
   187  190  192 1   
@<TRIPOS>SUBSTRUCTURE
     1 MOL         1 TEMP              0 ****  ****    0 ROOT
