@<TRIPOS>MOLECULE
MOL
  191   184     1     0     0
SMALL
resp


@<TRIPOS>ATOM
      1 C1         -6.6220   -1.7960    3.1550 c3        1 MOL     -0.425771
      2 C2         -7.0610   -1.7080    1.6780 c         1 MOL      0.552671
      3 O1         -6.2320   -1.4610    0.7770 o         1 MOL     -0.474179
      4 H1         -6.3300   -2.8200    3.3850 hc        1 MOL      0.116829
      5 H2         -5.7770   -1.1300    3.3230 hc        1 MOL      0.116829
      6 H3         -7.4510   -1.5020    3.7980 hc        1 MOL      0.116829
      7 N1         -8.3630   -1.9110    1.3480 n         1 MOL     -0.525811
      8 C3         -8.9960   -1.8260    0.0390 c3        1 MOL      0.439852
      9 C4         -8.5800   -0.5140   -0.6800 c         1 MOL      0.295574
     10 O2         -8.4300   -0.5330   -1.9400 o         1 MOL     -0.442298
     11 C5         -8.7430   -3.1060   -0.7670 c3        1 MOL     -0.297360
     12 C6         -9.5720   -3.4980   -1.9760 c         1 MOL      0.718465
     13 O3        -10.7000   -3.0150   -2.0770 o         1 MOL     -0.659284
     14 O4         -9.0970   -4.3220   -2.8080 o         1 MOL     -0.659284
     15 H4         -8.9940   -2.0620    2.1220 hn        1 MOL      0.275675
     16 H5        -10.0780   -1.8020    0.1810 h1        1 MOL     -0.058199
     17 H6         -8.7950   -3.9120   -0.0320 hc        1 MOL      0.065507
     18 H7         -7.7320   -3.0120   -1.1680 hc        1 MOL      0.065507
     19 N2         -8.6420    0.6410   -0.0030 n         1 MOL     -0.366999
     20 C7         -8.4590    1.9880   -0.4050 c3        1 MOL      0.365026
     21 C8         -6.9520    2.4100   -0.3690 c         1 MOL      0.403249
     22 O5         -6.6590    3.5750   -0.7140 o         1 MOL     -0.574660
     23 C9         -9.4710    2.8730    0.2110 c3        1 MOL     -0.328214
     24 C10       -10.9610    2.4320   -0.1040 c3        1 MOL     -0.022106
     25 C11       -11.5770    1.8790    1.1440 c3        1 MOL     -0.127098
     26 C12       -12.1770    2.9570    2.0300 c3        1 MOL      0.164928
     27 N3        -12.5120    2.5050    3.4020 n4        1 MOL     -0.189510
     28 H8         -8.9740    0.4790    0.9440 hn        1 MOL      0.164125
     29 H9         -8.5910    1.9430   -1.4860 h1        1 MOL      0.067443
     30 H10        -9.4060    3.7500   -0.4280 hc        1 MOL      0.076952
     31 H11        -9.2720    3.0240    1.2750 hc        1 MOL      0.076952
     32 H12       -11.0680    1.6910   -0.8980 hc        1 MOL      0.089836
     33 H13       -11.5660    3.2660   -0.4820 hc        1 MOL      0.089836
     34 H14       -10.8440    1.3230    1.7290 hc        1 MOL      0.038525
     35 H15       -12.4000    1.1970    0.9240 hc        1 MOL      0.038525
     36 H16       -12.9680    3.5370    1.5580 hx        1 MOL      0.029257
     37 H17       -11.3730    3.6370    2.3310 hx        1 MOL      0.029257
     38 H18       -12.8020    3.2580    4.0150 hn        1 MOL      0.208407
     39 H19       -13.1510    1.7300    3.4060 hn        1 MOL      0.208407
     40 H20       -11.6600    2.0670    3.7200 hn        1 MOL      0.208407
     41 N4         -6.0130    1.4950   -0.1440 n         1 MOL     -0.413795
     42 C13        -4.5310    1.7710   -0.1570 c3        1 MOL      0.064220
     43 C14        -4.0810    2.3230   -1.5320 c         1 MOL      0.751699
     44 O6         -4.4040    1.8150   -2.6290 o         1 MOL     -0.510667
     45 C15        -3.7700    0.5910    0.4580 c3        1 MOL     -0.103328
     46 C16        -2.3350    0.9570    0.6030 c         1 MOL      0.616437
     47 O7         -1.8100    1.1250    1.7360 o         1 MOL     -0.733242
     48 O8         -1.6230    1.0470   -0.4130 o         1 MOL     -0.733242
     49 H21        -6.3490    0.6080    0.2220 hn        1 MOL      0.205850
     50 H22        -4.3380    2.6630    0.4300 h1        1 MOL      0.003775
     51 H23        -3.8080   -0.3590   -0.0810 hc        1 MOL      0.069920
     52 H24        -4.1110    0.4370    1.4880 hc        1 MOL      0.069920
     53 N5         -3.3830    3.4780   -1.5620 n         1 MOL     -0.411018
     54 C17        -2.8500    4.0400   -2.8310 c3        1 MOL     -0.224602
     55 C18        -1.9570    3.2350   -3.6080 c         1 MOL      0.538420
     56 O9         -1.7420    3.5500   -4.7990 o         1 MOL     -0.550716
     57 H25        -3.0560    3.9790   -0.7420 hn        1 MOL      0.274000
     58 H26        -2.2630    4.8660   -2.4380 h1        1 MOL      0.130840
     59 H27        -3.6720    4.4390   -3.4320 h1        1 MOL      0.130840
     60 N6         -1.3890    2.1290   -3.0520 n         1 MOL     -0.138108
     61 C19        -0.7970    1.0330   -3.8710 c3        1 MOL     -0.086818
     62 C20        -1.1400   -0.3820   -3.3050 c         1 MOL      0.549363
     63 O10        -0.2570   -1.2770   -3.2540 o         1 MOL     -0.607081
     64 C21         0.7710    1.2760   -3.9770 c3        1 MOL     -0.300637
     65 C22         1.5040    1.0590   -2.7140 c         1 MOL      0.693763
     66 N7          2.7870    1.1290   -2.6890 n         1 MOL     -0.759419
     67 O11         0.9070    0.9160   -1.6420 o         1 MOL     -0.577718
     68 H28        -1.6000    1.8610   -2.0950 hn        1 MOL      0.036888
     69 H29        -1.2130    0.9240   -4.8800 h1        1 MOL      0.118890
     70 H30         0.8670    2.2910   -4.3390 hc        1 MOL      0.124608
     71 H31         1.2730    0.5840   -4.6580 hc        1 MOL      0.124608
     72 H32         3.3900    1.2110   -3.5030 hn        1 MOL      0.332999
     73 H33         3.2500    0.9450   -1.8090 hn        1 MOL      0.332999
     74 N8         -2.4030   -0.6460   -2.8720 n         1 MOL     -0.236927
     75 C23        -2.9470   -1.9620   -2.4460 c3        1 MOL     -0.329214
     76 C24        -2.5260   -2.5440   -1.1020 c         1 MOL      0.615431
     77 O12        -2.9990   -3.5640   -0.7560 o         1 MOL     -0.539095
     78 H34        -3.0420    0.1350   -2.8340 hn        1 MOL      0.163972
     79 H35        -2.7150   -2.7060   -3.2140 h1        1 MOL      0.171401
     80 H36        -4.0250   -1.7830   -2.3880 h1        1 MOL      0.171401
     81 N9         -1.5530   -1.9990   -0.3710 n         1 MOL     -0.419282
     82 C25        -0.8800   -2.4750    0.8530 c3        1 MOL     -0.060065
     83 C26         0.4990   -1.9610    0.9240 c         1 MOL      0.176169
     84 O13         0.7070   -0.7690    0.7420 o         1 MOL     -0.667956
     85 C27        -1.7730   -2.4360    2.1080 c3        1 MOL     -0.321930
     86 C28        -1.0180   -2.6090    3.4380 ca        1 MOL      0.054240
     87 C29        -0.7460   -3.8030    4.0810 ca        1 MOL     -0.108820
     88 C30        -0.4960   -1.4390    4.0100 ca        1 MOL     -0.108820
     89 C31        -0.1120   -3.8690    5.3020 ca        1 MOL     -0.293602
     90 C32         0.1070   -1.4180    5.2580 ca        1 MOL     -0.293602
     91 C33         0.2870   -2.6830    5.8990 ca        1 MOL      0.373074
     92 O14         0.9290   -2.7150    7.0630 oh        1 MOL     -0.445924
     93 H37        -1.2060   -1.1270   -0.7500 hn        1 MOL      0.540229
     94 H38        -0.7560   -3.5240    0.6070 h1        1 MOL      0.120087
     95 H39        -2.5830   -3.1620    2.0410 hc        1 MOL      0.173905
     96 H40        -2.2710   -1.4700    2.2180 hc        1 MOL      0.173905
     97 H41        -1.1050   -4.7180    3.6370 ha        1 MOL      0.135591
     98 H42        -0.7010   -0.4950    3.5140 ha        1 MOL      0.135591
     99 H43         0.2260   -4.8380    5.6530 ha        1 MOL      0.138333
    100 H44         0.4530   -0.5080    5.7290 ha        1 MOL      0.138333
    101 H45         1.3490   -1.8740    7.2640 ho        1 MOL      0.338770
    102 N10         1.4250   -2.8480    1.1590 n         1 MOL     -0.032154
    103 C34         2.8760   -2.5450    1.1000 c3        1 MOL     -0.119175
    104 C35         3.4760   -2.1540   -0.2110 c         1 MOL      0.631722
    105 O15         4.3750   -1.3880   -0.3190 o         1 MOL     -0.592550
    106 C36         3.6190   -3.7290    1.7200 c3        1 MOL      0.085955
    107 C37         3.2520   -4.0050    3.1840 c3        1 MOL     -0.466317
    108 C38         5.1780   -3.7470    1.5020 c3        1 MOL     -0.103350
    109 C39         3.6500   -2.8680    4.1350 c3        1 MOL     -0.009160
    110 H46         1.1560   -3.8000    1.3460 hn        1 MOL      0.187268
    111 H47         3.0820   -1.7080    1.7600 h1        1 MOL      0.167190
    112 H48         3.3180   -4.5530    1.0710 hc        1 MOL     -0.026439
    113 H49         3.9360   -4.7730    3.5540 hc        1 MOL      0.181078
    114 H50         2.2290   -4.3750    3.3050 hc        1 MOL      0.181078
    115 H51         5.4760   -2.8050    1.9740 hc        1 MOL      0.040764
    116 H52         5.7240   -4.6140    1.8730 hc        1 MOL      0.040764
    117 H53         5.4350   -3.6840    0.4420 hc        1 MOL      0.040764
    118 H54         3.4150   -1.8590    3.8010 hc        1 MOL      0.016186
    119 H55         3.2540   -2.9980    5.1410 hc        1 MOL      0.016186
    120 H56         4.7400   -2.8620    4.2540 hc        1 MOL      0.016186
    121 N11         2.9600   -2.8530   -1.2760 n         1 MOL     -0.166808
    122 C40         3.2100   -2.5900   -2.7470 c3        1 MOL     -0.187654
    123 C41         4.7510   -2.4880   -3.0100 c         1 MOL      0.648554
    124 O16         5.1570   -1.6950   -3.8560 o         1 MOL     -0.539874
    125 C42         2.3450   -3.5950   -3.5580 c3        1 MOL      0.048454
    126 O17         2.4360   -4.9780   -3.2320 oh        1 MOL     -0.625759
    127 H57         2.2450   -3.5180   -1.0140 hn        1 MOL      0.200288
    128 H58         2.7320   -1.6690   -3.0660 h1        1 MOL      0.119736
    129 H59         2.4440   -3.4060   -4.6250 h1        1 MOL      0.089647
    130 H60         1.3030   -3.4440   -3.2960 h1        1 MOL      0.089647
    131 H61         1.9170   -5.3470   -3.9550 ho        1 MOL      0.422788
    132 N12         5.6040   -3.2120   -2.2540 n         1 MOL     -0.384554
    133 C43         7.0400   -3.1890   -2.6060 c3        1 MOL      0.172102
    134 C44         7.7830   -1.8380   -2.5910 c         1 MOL      0.492642
    135 O18         8.9210   -1.7480   -3.0350 o         1 MOL     -0.532809
    136 C45         7.4540   -4.1860   -3.6990 c3        1 MOL     -0.157556
    137 H62         5.2110   -3.8400   -1.5650 hn        1 MOL      0.228629
    138 H63         7.4860   -3.6320   -1.7230 h1        1 MOL      0.043481
    139 H64         7.1170   -3.9190   -4.7070 hc        1 MOL      0.049617
    140 H65         8.5160   -4.4270   -3.7120 hc        1 MOL      0.049617
    141 H66         6.9550   -5.1410   -3.5010 hc        1 MOL      0.049617
    142 N13         7.1170   -0.8230   -1.9730 n         1 MOL     -0.375661
    143 C46         7.5940    0.5740   -1.7790 c3        1 MOL      0.156500
    144 C47         8.0990    0.9620   -0.3730 c         1 MOL      0.484112
    145 O19         7.6060    0.5150    0.6490 o         1 MOL     -0.442047
    146 C48         6.3070    1.3020   -2.1630 c3        1 MOL     -0.057600
    147 H67         6.2860   -1.0250   -1.4400 hn        1 MOL      0.133043
    148 H68         8.3410    0.9230   -2.4860 h1        1 MOL      0.029923
    149 H69         6.4320    2.3810   -2.2400 hc        1 MOL      0.018526
    150 H70         5.9960    0.8530   -3.1070 hc        1 MOL      0.018526
    151 H71         5.4970    1.0920   -1.4590 hc        1 MOL      0.018526
    152 N14         9.0680    1.8920   -0.3410 n         1 MOL     -0.565759
    153 C49         9.5840    2.4250    0.9220 c3        1 MOL      0.035458
    154 C50         9.9720    1.3200    1.9500 c         1 MOL      0.507651
    155 O20         9.7150    1.4360    3.1390 o         1 MOL     -0.500896
    156 C51         8.6540    3.5310    1.5460 c3        1 MOL      0.114125
    157 C52         8.6680    4.8070    0.7060 c3        1 MOL     -0.146077
    158 C53         7.6800    5.7650    1.2420 c         1 MOL      0.641211
    159 O21         8.0700    6.7300    1.9360 o         1 MOL     -0.684517
    160 O22         6.4450    5.5690    0.9630 o         1 MOL     -0.684517
    161 H72         9.4920    2.2880   -1.1670 hn        1 MOL      0.334998
    162 H73        10.5630    2.8850    0.8230 h1        1 MOL      0.040087
    163 H74         9.0220    3.7890    2.5390 hc        1 MOL     -0.001998
    164 H75         7.6610    3.1000    1.6550 hc        1 MOL     -0.001998
    165 H76         8.5140    4.6840   -0.3620 hc        1 MOL      0.018674
    166 H77         9.6870    5.1750    0.7820 hc        1 MOL      0.018674
    167 N15        10.6220    0.2780    1.4350 n         1 MOL     -0.435869
    168 C54        10.6780   -0.9430    2.2280 c3        1 MOL     -0.013495
    169 H78         9.7130   -1.4480    2.1850 h1        1 MOL      0.053767
    170 H79        11.4490   -1.6010    1.8280 h1        1 MOL      0.053767
    171 H80        10.9120   -0.6950    3.2630 h1        1 MOL      0.053767
    172 H81        10.8410    0.1390    0.4580 hn        1 MOL      0.291045
    173 Ca1         0.4840    2.0190    0.7500 Ca        1 MOL      1.828910
    174 O23        -0.8780    4.3440    0.7150 oh        1 MOL     -0.803279
    175 H82        -1.6970    4.4240    1.2090 ho        1 MOL      0.402173
    176 H83        -0.4460    5.1810    0.8470 ho        1 MOL      0.402173
    177 O24         1.3080    3.7270   -1.4170 oh        1 MOL     -0.803279
    178 H84         2.1990    3.8320   -1.7470 ho        1 MOL      0.402173
    179 H85         0.8310    4.4800   -1.7480 ho        1 MOL      0.402173
    180 O25        -0.4940    3.2150    3.5320 oh        1 MOL     -0.803279
    181 H86        -0.1690    3.9750    3.9980 ho        1 MOL      0.402173
    182 H87        -0.8970    2.6720    4.2140 ho        1 MOL      0.402173
    183 O26         1.3830    0.6890    3.2550 oh        1 MOL     -0.803279
    184 H88         1.8080    1.2470    3.9070 ho        1 MOL      0.402173
    185 H89         1.2770   -0.1590    3.7060 ho        1 MOL      0.402173
    186 O27         3.1370    1.3300    0.8460 oh        1 MOL     -0.803279
    187 H90         3.4790    0.4410    0.7360 ho        1 MOL      0.402173
    188 H91         3.9050    1.8920    0.7970 ho        1 MOL      0.402173
    189 O28         2.1400    3.8310    1.8060 oh        1 MOL     -0.803279
    190 H92         2.9710    3.8530    1.3180 ho        1 MOL      0.402173
    191 H93         2.1850    4.5760    2.3950 ho        1 MOL      0.402173
@<TRIPOS>BOND
     1    1    2 1   
     2    1    4 1   
     3    1    5 1   
     4    1    6 1   
     5    2    3 2   
     6    2    7 1   
     7    7    8 1   
     8    7   15 1   
     9    8    9 1   
    10    8   11 1   
    11    8   16 1   
    12    9   10 2   
    13    9   19 1   
    14   11   12 1   
    15   11   17 1   
    16   11   18 1   
    17   12   13 1   
    18   12   14 1   
    19   19   20 1   
    20   19   28 1   
    21   20   21 1   
    22   20   23 1   
    23   20   29 1   
    24   21   22 2   
    25   21   41 1   
    26   23   24 1   
    27   23   30 1   
    28   23   31 1   
    29   24   25 1   
    30   24   32 1   
    31   24   33 1   
    32   25   26 1   
    33   25   34 1   
    34   25   35 1   
    35   26   27 1   
    36   26   36 1   
    37   26   37 1   
    38   27   38 1   
    39   27   39 1   
    40   27   40 1   
    41   41   42 1   
    42   41   49 1   
    43   42   43 1   
    44   42   45 1   
    45   42   50 1   
    46   43   44 2   
    47   43   53 1   
    48   45   46 1   
    49   45   51 1   
    50   45   52 1   
    51   46   47 1   
    52   46   48 1   
    53   53   54 1   
    54   53   57 1   
    55   54   55 1   
    56   54   58 1   
    57   54   59 1   
    58   55   56 2   
    59   55   60 1   
    60   60   61 1   
    61   60   68 1   
    62   61   62 1   
    63   61   64 1   
    64   61   69 1   
    65   62   63 2   
    66   62   74 1   
    67   64   65 1   
    68   64   70 1   
    69   64   71 1   
    70   65   66 1   
    71   65   67 2   
    72   66   72 1   
    73   66   73 1   
    74   74   75 1   
    75   74   78 1   
    76   75   76 1   
    77   75   79 1   
    78   75   80 1   
    79   76   77 2   
    80   76   81 1   
    81   81   82 1   
    82   81   93 1   
    83   82   83 1   
    84   82   85 1   
    85   82   94 1   
    86   83   84 2   
    87   83  102 1   
    88   85   86 1   
    89   85   95 1   
    90   85   96 1   
    91   86   87 ar  
    92   86   88 ar  
    93   87   89 ar  
    94   87   97 1   
    95   88   90 ar  
    96   88   98 1   
    97   89   91 ar  
    98   89   99 1   
    99   90   91 ar  
   100   90  100 1   
   101   91   92 1   
   102   92  101 1   
   103  102  103 1   
   104  102  110 1   
   105  103  104 1   
   106  103  106 1   
   107  103  111 1   
   108  104  105 2   
   109  104  121 1   
   110  106  107 1   
   111  106  108 1   
   112  106  112 1   
   113  107  109 1   
   114  107  113 1   
   115  107  114 1   
   116  108  115 1   
   117  108  116 1   
   118  108  117 1   
   119  109  118 1   
   120  109  119 1   
   121  109  120 1   
   122  121  122 1   
   123  121  127 1   
   124  122  123 1   
   125  122  125 1   
   126  122  128 1   
   127  123  124 2   
   128  123  132 1   
   129  125  126 1   
   130  125  129 1   
   131  125  130 1   
   132  126  131 1   
   133  132  133 1   
   134  132  137 1   
   135  133  134 1   
   136  133  136 1   
   137  133  138 1   
   138  134  135 2   
   139  134  142 1   
   140  136  139 1   
   141  136  140 1   
   142  136  141 1   
   143  142  143 1   
   144  142  147 1   
   145  143  144 1   
   146  143  146 1   
   147  143  148 1   
   148  144  145 2   
   149  144  152 1   
   150  146  149 1   
   151  146  150 1   
   152  146  151 1   
   153  152  153 1   
   154  152  161 1   
   155  153  154 1   
   156  153  156 1   
   157  153  162 1   
   158  154  155 2   
   159  154  167 1   
   160  156  157 1   
   161  156  163 1   
   162  156  164 1   
   163  157  158 1   
   164  157  165 1   
   165  157  166 1   
   166  158  159 1   
   167  158  160 1   
   168  167  168 1   
   169  167  172 1   
   170  168  169 1   
   171  168  170 1   
   172  168  171 1   
   173  174  175 1   
   174  174  176 1   
   175  177  178 1   
   176  177  179 1   
   177  180  181 1   
   178  180  182 1   
   179  183  184 1   
   180  183  185 1   
   181  186  187 1   
   182  186  188 1   
   183  189  190 1   
   184  189  191 1   
@<TRIPOS>SUBSTRUCTURE
     1 MOL         1 TEMP              0 ****  ****    0 ROOT
