@<TRIPOS>MOLECULE
MOL
  178   175     1     0     0
SMALL
resp


@<TRIPOS>ATOM
      1 C1         -2.2570    0.9350    4.1560 c3        1 MOL     -0.169072
      2 C2         -2.8720   -0.2910    3.4520 c         1 MOL      0.693111
      3 O1         -2.1920   -0.7810    2.5480 o         1 MOL     -0.577901
      4 H1         -2.9960    1.7360    4.1990 hc        1 MOL      0.029819
      5 H2         -1.9580    0.6620    5.1680 hc        1 MOL      0.029819
      6 H3         -1.3850    1.2760    3.5970 hc        1 MOL      0.029819
      7 N1         -4.0960   -0.7500    3.7820 n         1 MOL     -0.621492
      8 C3         -4.5910   -2.1180    3.4650 c3        1 MOL      0.193021
      9 C4         -5.4640   -2.1220    2.1890 c         1 MOL      0.525313
     10 O2         -5.3170   -3.0440    1.4020 o         1 MOL     -0.573424
     11 C5         -5.3900   -2.6730    4.6170 c3        1 MOL     -0.280011
     12 C6         -6.6990   -1.9850    5.0460 c         1 MOL      0.707378
     13 O3         -7.8100   -2.6210    4.9750 o         1 MOL     -0.716604
     14 O4         -6.6480   -0.8010    5.3100 o         1 MOL     -0.716604
     15 H4         -4.5070   -0.2710    4.5700 hn        1 MOL      0.291202
     16 H5         -3.7380   -2.7710    3.2900 h1        1 MOL      0.048895
     17 H6         -4.7710   -2.6810    5.5260 hc        1 MOL      0.039947
     18 H7         -5.5830   -3.7270    4.4550 hc        1 MOL      0.039947
     19 N2         -6.2030   -1.0290    2.0190 n         1 MOL     -0.234466
     20 C7         -6.8030   -0.5810    0.7700 c3        1 MOL     -0.001934
     21 C8         -5.8030   -0.4360   -0.3600 c         1 MOL      0.577829
     22 O5         -5.0070    0.5110   -0.2690 o         1 MOL     -0.631452
     23 C9         -8.0820   -1.4340    0.4020 c3        1 MOL     -0.331960
     24 H8         -6.3240   -0.4680    2.8500 hn        1 MOL      0.258455
     25 H9         -7.1090    0.4410    0.9820 h1        1 MOL      0.100712
     26 H10        -7.6450   -2.4330    0.3970 hc        1 MOL      0.091037
     27 H11        -8.8180   -1.3210    1.1970 hc        1 MOL      0.091037
     28 H12        -8.6580   -1.2800   -0.5090 hc        1 MOL      0.091037
     29 N3         -5.8310   -1.3220   -1.4170 n         1 MOL     -0.471301
     30 C10        -4.8970   -1.4930   -2.5460 c3        1 MOL      0.207891
     31 C11        -4.6690   -2.9770   -2.8140 c         1 MOL      0.558034
     32 O6         -4.7380   -3.4900   -3.9380 o         1 MOL     -0.546663
     33 C12        -5.3340   -0.7920   -3.8000 c3        1 MOL     -0.355563
     34 C13        -5.4020    0.7490   -3.5950 c         1 MOL      0.750056
     35 O7         -4.4270    1.3570   -3.1310 o         1 MOL     -0.704492
     36 O8         -6.3750    1.3330   -4.1060 o         1 MOL     -0.704492
     37 H13        -6.6200   -1.9620   -1.3880 hn        1 MOL      0.260911
     38 H14        -3.9400   -1.0160   -2.3340 h1        1 MOL     -0.023139
     39 H15        -6.2950   -1.2000   -4.0960 hc        1 MOL      0.083853
     40 H16        -4.6630   -0.9910   -4.6340 hc        1 MOL      0.083853
     41 N4         -4.3580   -3.6850   -1.6980 n         1 MOL     -0.320143
     42 C14        -3.9400   -5.0710   -1.7080 c3        1 MOL     -0.279643
     43 C15        -2.4780   -5.2090   -2.1030 c         1 MOL      0.752088
     44 O9         -2.0690   -6.3120   -2.2540 o         1 MOL     -0.611392
     45 H17        -4.3470   -3.1670   -0.8320 hn        1 MOL      0.289636
     46 H18        -4.5170   -5.5840   -2.4830 h1        1 MOL      0.120830
     47 H19        -4.0090   -5.6180   -0.7720 h1        1 MOL      0.120830
     48 N5         -1.7160   -4.1180   -2.1510 n         1 MOL     -0.422767
     49 C16        -0.3000   -4.1870   -2.5500 c3        1 MOL     -0.028181
     50 C17         0.6860   -4.8250   -1.5620 c         1 MOL      0.586640
     51 O10         0.5020   -4.6680   -0.3490 o         1 MOL     -0.532447
     52 C18         0.2710   -2.7770   -2.7150 c3        1 MOL     -0.308828
     53 C19        -0.4750   -2.0400   -3.7580 c         1 MOL      0.754966
     54 N6         -1.1790   -1.0030   -3.4480 n         1 MOL     -0.774738
     55 O11        -0.3730   -2.4100   -4.9080 o         1 MOL     -0.629772
     56 H20        -2.1760   -3.2540   -1.9090 hn        1 MOL      0.244373
     57 H21        -0.1120   -4.7020   -3.4970 h1        1 MOL      0.060615
     58 H22         1.2530   -2.8860   -3.1710 hc        1 MOL      0.130734
     59 H23         0.1230   -2.2290   -1.7910 hc        1 MOL      0.130734
     60 H24        -1.2410   -0.7190   -2.4840 hn        1 MOL      0.347791
     61 H25        -1.5950   -0.4030   -4.1450 hn        1 MOL      0.347791
     62 N7          1.7190   -5.5450   -2.0820 n         1 MOL     -0.436620
     63 C20         2.6930   -6.2760   -1.3840 c3        1 MOL     -0.111997
     64 C21         4.0790   -5.6310   -1.1160 c         1 MOL      0.607046
     65 O12         4.5680   -4.8010   -1.8850 o         1 MOL     -0.519200
     66 H26         1.6930   -5.5000   -3.0870 hn        1 MOL      0.302250
     67 H27         2.9280   -7.1420   -1.9920 h1        1 MOL      0.091856
     68 H28         2.2050   -6.6360   -0.4830 h1        1 MOL      0.091856
     69 N8          4.7160   -6.0100   -0.0300 n         1 MOL     -0.521636
     70 C22         6.0330   -5.3750    0.4280 c3        1 MOL     -0.136272
     71 C23         5.8470   -3.8550    0.9150 c         1 MOL      0.324597
     72 O13         6.8200   -3.1290    1.2070 o         1 MOL     -0.521716
     73 C24         6.7750   -6.2200    1.4800 c3        1 MOL      0.403142
     74 C25         6.1880   -5.9120    2.8890 c3        1 MOL     -0.303919
     75 O14         6.6390   -7.6380    1.2320 oh        1 MOL     -0.625749
     76 H29         4.3770   -6.7900    0.4950 hn        1 MOL      0.268346
     77 H30         6.7140   -5.3690   -0.4300 h1        1 MOL      0.150191
     78 H31         7.8420   -6.0530    1.3960 h1        1 MOL      0.049798
     79 H32         5.7300   -7.8840    1.3990 ho        1 MOL      0.379961
     80 H33         6.6080   -4.9530    3.1910 hc        1 MOL      0.071498
     81 H34         5.0990   -5.8760    2.7830 hc        1 MOL      0.071498
     82 H35         6.4400   -6.6460    3.6510 hc        1 MOL      0.071498
     83 N9          4.6140   -3.4230    0.7230 n         1 MOL      0.054977
     84 C26         4.0800   -2.0920    1.0610 c3        1 MOL     -0.157481
     85 C27         3.0340   -1.5540    0.0570 c         1 MOL      0.359088
     86 O15         2.5120   -2.2190   -0.8820 o         1 MOL     -0.513144
     87 C28         3.4990   -2.0960    2.4640 c3        1 MOL      0.023239
     88 C29         2.5750   -3.3550    2.6750 c3        1 MOL      0.226385
     89 C30         4.5690   -1.9950    3.5920 c3        1 MOL     -0.309432
     90 C31         1.9020   -3.4270    4.0740 c3        1 MOL     -0.591484
     91 H36         3.9960   -4.1070    0.3110 hn        1 MOL      0.098392
     92 H37         4.9300   -1.4150    1.0500 h1        1 MOL      0.155209
     93 H38         2.8700   -1.2380    2.7170 hc        1 MOL      0.064904
     94 H39         3.1100   -4.3010    2.5940 hc        1 MOL      0.029673
     95 H40         1.7520   -3.2750    1.9660 hc        1 MOL      0.029673
     96 H41         4.9440   -2.9600    3.9330 hc        1 MOL      0.071111
     97 H42         5.4280   -1.3500    3.4030 hc        1 MOL      0.071111
     98 H43         4.1470   -1.6010    4.5170 hc        1 MOL      0.071111
     99 H44         0.9530   -3.9540    3.9220 hc        1 MOL      0.143331
    100 H45         2.5160   -3.8980    4.8400 hc        1 MOL      0.143331
    101 H46         1.5570   -2.4410    4.3920 hc        1 MOL      0.143331
    102 N10         2.6820   -0.3450    0.2540 n         1 MOL     -0.089142
    103 C32         1.5520    0.2890   -0.4260 c3        1 MOL      0.010344
    104 C33         1.8980    1.3890   -1.4330 c         1 MOL      0.514861
    105 O16         1.0470    2.1040   -2.0000 o         1 MOL     -0.572109
    106 C34         0.5390    0.8760    0.5960 c3        1 MOL      0.338429
    107 C35        -0.8640    1.0630    0.0200 c         1 MOL      0.682764
    108 O17        -1.2450    0.3280   -0.9290 o         1 MOL     -0.701821
    109 O18        -1.6000    1.9320    0.5300 o         1 MOL     -0.701821
    110 H47         3.1010    0.1030    1.0520 hn        1 MOL      0.149741
    111 H48         0.9200   -0.4740   -0.8860 h1        1 MOL     -0.012529
    112 H49         0.9960    1.7390    1.0600 hc        1 MOL     -0.105204
    113 H50         0.5320    0.1550    1.4130 hc        1 MOL     -0.105204
    114 N11         3.1710    1.6910   -1.4370 n         1 MOL     -0.433754
    115 C36         3.7510    2.8920   -2.0220 c3        1 MOL      0.395757
    116 C37         3.4910    4.1290   -1.0730 c         1 MOL      0.308758
    117 O19         3.5610    4.0550    0.1430 o         1 MOL     -0.439730
    118 C38         5.1830    2.6900   -2.3570 c3        1 MOL     -0.300406
    119 C39         5.8930    1.8480   -1.2870 ca        1 MOL      0.058028
    120 C40         6.2750    2.4680   -0.0940 ca        1 MOL     -0.174367
    121 C41         6.1460    0.4730   -1.4300 ca        1 MOL     -0.174367
    122 C42         6.8070    1.6740    0.9470 ca        1 MOL     -0.069286
    123 C43         6.7850   -0.3240   -0.4940 ca        1 MOL     -0.069286
    124 C44         7.0990    0.2790    0.7390 ca        1 MOL     -0.161046
    125 H51         3.7940    0.9820   -1.0770 hn        1 MOL      0.181870
    126 H52         3.2870    3.0880   -2.9860 h1        1 MOL     -0.008842
    127 H53         5.7200    3.6070   -2.6000 hc        1 MOL      0.104538
    128 H54         5.1350    2.0670   -3.2470 hc        1 MOL      0.104538
    129 H55         6.1800    3.5480   -0.0950 ha        1 MOL      0.120453
    130 H56         5.7470    0.0840   -2.3500 ha        1 MOL      0.120453
    131 H57         7.0670    2.1250    1.8890 ha        1 MOL      0.106152
    132 H58         6.9640   -1.3770   -0.6260 ha        1 MOL      0.106152
    133 H59         7.4670   -0.3030    1.5620 ha        1 MOL      0.128359
    134 N12         3.3380    5.3260   -1.6970 n         1 MOL     -0.218974
    135 C45         3.4820    6.5600   -0.9080 c3        1 MOL      0.154351
    136 C46         2.6190    6.7430    0.3750 c         1 MOL      0.175000
    137 O20         2.9140    7.5940    1.2490 o         1 MOL     -0.477784
    138 C47         3.3150    7.6980   -1.8680 c3        1 MOL     -0.095335
    139 C48         3.9910    7.2110   -3.1400 c3        1 MOL     -0.018447
    140 C49         3.4930    5.7120   -3.0670 c3        1 MOL      0.001236
    141 H60         4.5370    6.5610   -0.6590 h1        1 MOL      0.069386
    142 H61         2.2620    7.8660   -2.0870 hc        1 MOL      0.058373
    143 H62         3.8620    8.5160   -1.4120 hc        1 MOL      0.058373
    144 H63         3.7550    7.7470   -4.0590 hc        1 MOL      0.026898
    145 H64         5.0600    7.2000   -2.9780 hc        1 MOL      0.026898
    146 H65         2.4840    5.6950   -3.4850 h1        1 MOL      0.040033
    147 H66         4.0860    5.0300   -3.6790 h1        1 MOL      0.040033
    148 N13         1.4950    5.9750    0.5400 n         1 MOL     -0.123867
    149 C50         0.6980    6.0070    1.8130 c3        1 MOL     -0.020550
    150 C51         1.5890    5.4600    3.0040 c         1 MOL      0.341274
    151 O21         1.2970    5.7090    4.1640 o         1 MOL     -0.551868
    152 C52        -0.6280    5.2270    1.5730 c3        1 MOL     -0.105255
    153 C53        -1.5490    6.2800    0.9230 c3        1 MOL     -0.180607
    154 C54        -2.7470    5.6380    0.2590 c         1 MOL      0.700819
    155 O22        -2.4700    4.8770   -0.7220 o         1 MOL     -0.719132
    156 O23        -3.8670    5.6320    0.8300 o         1 MOL     -0.719132
    157 H67         1.2500    5.2560   -0.1400 hn        1 MOL      0.227958
    158 H68         0.3820    7.0010    2.1210 h1        1 MOL      0.124666
    159 H69        -1.0420    4.8680    2.5080 hc        1 MOL      0.077990
    160 H70        -0.5880    4.3670    0.9120 hc        1 MOL      0.077990
    161 H71        -0.9940    6.8740    0.2080 hc        1 MOL      0.027334
    162 H72        -1.8900    6.9470    1.7130 hc        1 MOL      0.027334
    163 N14         2.6310    4.7230    2.8230 n         1 MOL     -0.028624
    164 C55         3.4740    4.0710    3.8970 c3        1 MOL     -0.232288
    165 H73         4.0910    3.2910    3.4500 h1        1 MOL      0.093923
    166 H74         4.1160    4.8200    4.3610 h1        1 MOL      0.093923
    167 H75         2.8240    3.6310    4.6520 h1        1 MOL      0.093923
    168 H76         2.8750    4.4970    1.8690 hn        1 MOL      0.112871
    169 Ca1        -3.5230    2.4380   -0.9930 Ca        1 MOL      1.780106
    170 O24        -4.2600    3.0720    1.6520 oh        1 MOL     -0.918229
    171 H77        -4.0210    3.9960    1.6660 ho        1 MOL      0.430383
    172 H78        -4.5450    2.8840    2.5540 ho        1 MOL      0.430383
    173 O25        -5.5720    3.8740   -1.6190 oh        1 MOL     -0.918229
    174 H79        -5.8640    4.5470   -1.0000 ho        1 MOL      0.430383
    175 H80        -6.3250    3.7360   -2.1940 ho        1 MOL      0.430383
    176 O26        -1.6170    2.5930   -2.8290 oh        1 MOL     -0.918229
    177 H81        -0.7020    2.3000   -2.8300 ho        1 MOL      0.430383
    178 H82        -1.7590    2.9310   -3.7190 ho        1 MOL      0.430383
@<TRIPOS>BOND
     1    1    2 1   
     2    1    4 1   
     3    1    5 1   
     4    1    6 1   
     5    2    3 2   
     6    2    7 1   
     7    7    8 1   
     8    7   15 1   
     9    8    9 1   
    10    8   11 1   
    11    8   16 1   
    12    9   10 2   
    13    9   19 1   
    14   11   12 1   
    15   11   17 1   
    16   11   18 1   
    17   12   13 1   
    18   12   14 1   
    19   19   20 1   
    20   19   24 1   
    21   20   21 1   
    22   20   23 1   
    23   20   25 1   
    24   21   22 2   
    25   21   29 1   
    26   23   26 1   
    27   23   27 1   
    28   23   28 1   
    29   29   30 1   
    30   29   37 1   
    31   30   31 1   
    32   30   33 1   
    33   30   38 1   
    34   31   32 2   
    35   31   41 1   
    36   33   34 1   
    37   33   39 1   
    38   33   40 1   
    39   34   35 1   
    40   34   36 1   
    41   41   42 1   
    42   41   45 1   
    43   42   43 1   
    44   42   46 1   
    45   42   47 1   
    46   43   44 2   
    47   43   48 1   
    48   48   49 1   
    49   48   56 1   
    50   49   50 1   
    51   49   52 1   
    52   49   57 1   
    53   50   51 2   
    54   50   62 1   
    55   52   53 1   
    56   52   58 1   
    57   52   59 1   
    58   53   54 1   
    59   53   55 2   
    60   54   60 1   
    61   54   61 1   
    62   62   63 1   
    63   62   66 1   
    64   63   64 1   
    65   63   67 1   
    66   63   68 1   
    67   64   65 2   
    68   64   69 1   
    69   69   70 1   
    70   69   76 1   
    71   70   71 1   
    72   70   73 1   
    73   70   77 1   
    74   71   72 2   
    75   71   83 1   
    76   73   74 1   
    77   73   75 1   
    78   73   78 1   
    79   74   80 1   
    80   74   81 1   
    81   74   82 1   
    82   75   79 1   
    83   83   84 1   
    84   83   91 1   
    85   84   85 1   
    86   84   87 1   
    87   84   92 1   
    88   85   86 2   
    89   85  102 1   
    90   87   88 1   
    91   87   89 1   
    92   87   93 1   
    93   88   90 1   
    94   88   94 1   
    95   88   95 1   
    96   89   96 1   
    97   89   97 1   
    98   89   98 1   
    99   90   99 1   
   100   90  100 1   
   101   90  101 1   
   102  102  103 1   
   103  102  110 1   
   104  103  104 1   
   105  103  106 1   
   106  103  111 1   
   107  104  105 2   
   108  104  114 1   
   109  106  107 1   
   110  106  112 1   
   111  106  113 1   
   112  107  108 1   
   113  107  109 1   
   114  114  115 1   
   115  114  125 1   
   116  115  116 1   
   117  115  118 1   
   118  115  126 1   
   119  116  117 2   
   120  116  134 1   
   121  118  119 1   
   122  118  127 1   
   123  118  128 1   
   124  119  120 ar  
   125  119  121 ar  
   126  120  122 ar  
   127  120  129 1   
   128  121  123 ar  
   129  121  130 1   
   130  122  124 ar  
   131  122  131 1   
   132  123  124 ar  
   133  123  132 1   
   134  124  133 1   
   135  134  135 1   
   136  134  140 1   
   137  135  136 1   
   138  135  138 1   
   139  135  141 1   
   140  136  137 2   
   141  136  148 1   
   142  138  139 1   
   143  138  142 1   
   144  138  143 1   
   145  139  140 1   
   146  139  144 1   
   147  139  145 1   
   148  140  146 1   
   149  140  147 1   
   150  148  149 1   
   151  148  157 1   
   152  149  150 1   
   153  149  152 1   
   154  149  158 1   
   155  150  151 2   
   156  150  163 1   
   157  152  153 1   
   158  152  159 1   
   159  152  160 1   
   160  153  154 1   
   161  153  161 1   
   162  153  162 1   
   163  154  155 1   
   164  154  156 1   
   165  163  164 1   
   166  163  168 1   
   167  164  165 1   
   168  164  166 1   
   169  164  167 1   
   170  170  171 1   
   171  170  172 1   
   172  173  174 1   
   173  173  175 1   
   174  176  177 1   
   175  176  178 1   
@<TRIPOS>SUBSTRUCTURE
     1 MOL         1 TEMP              0 ****  ****    0 ROOT
