@<TRIPOS>MOLECULE
MOL
  179   176     1     0     0
SMALL
resp


@<TRIPOS>ATOM
      1 C1          1.7360   -4.4700    6.0620 c3        1 MOL     -0.325883
      2 C2          1.7810   -4.2690    4.5470 c         1 MOL      0.706659
      3 O1          0.9150   -4.6750    3.7670 o         1 MOL     -0.561801
      4 H1          2.0980   -5.4690    6.3060 hc        1 MOL      0.084098
      5 H2          2.3680   -3.7260    6.5460 hc        1 MOL      0.084098
      6 H3          0.7100   -4.3600    6.4130 hc        1 MOL      0.084098
      7 N1          2.7730   -3.4340    4.1070 n         1 MOL     -0.469396
      8 C3          2.8220   -2.9680    2.7370 c3        1 MOL     -0.016188
      9 C4          3.2810   -4.0700    1.7350 c         1 MOL      0.490499
     10 O2          4.1870   -4.8320    2.1460 o         1 MOL     -0.546718
     11 C5          3.7530   -1.7630    2.7680 c3        1 MOL     -0.067002
     12 C6          3.6980   -1.0440    1.4530 c         1 MOL      0.454781
     13 O3          4.2660    0.0850    1.3850 o         1 MOL     -0.633704
     14 O4          3.2050   -1.5480    0.4200 o         1 MOL     -0.633704
     15 H4          3.5170   -3.2330    4.7610 hn        1 MOL      0.285476
     16 H5          1.7960   -2.6800    2.5030 h1        1 MOL     -0.042265
     17 H6          4.7770   -2.1240    2.9130 hc        1 MOL      0.059122
     18 H7          3.4100   -1.0500    3.5140 hc        1 MOL      0.059122
     19 N2          2.6040   -4.2630    0.6050 n         1 MOL     -0.211833
     20 C7          2.8760   -5.3200   -0.3840 c3        1 MOL      0.072921
     21 C8          3.9340   -4.8730   -1.4450 c         1 MOL      0.623483
     22 O5          4.0490   -5.5090   -2.4730 o         1 MOL     -0.567867
     23 C9          1.5990   -5.9190   -0.9050 c3        1 MOL     -0.126725
     24 C10         0.8710   -4.9380   -1.8220 c3        1 MOL      0.052420
     25 C11        -0.4500   -5.5220   -2.2990 c3        1 MOL     -0.021134
     26 C12        -0.4720   -6.3450   -3.5750 c3        1 MOL     -0.159015
     27 N3         -0.1790   -5.4310   -4.6770 n4        1 MOL     -0.106519
     28 H8          1.9150   -3.5460    0.3960 hn        1 MOL      0.121788
     29 H9          3.4190   -6.1320    0.1070 h1        1 MOL      0.059792
     30 H10         0.9710   -6.1450   -0.0370 hc        1 MOL      0.061860
     31 H11         1.8400   -6.7890   -1.5200 hc        1 MOL      0.061860
     32 H12         1.4830   -4.4540   -2.5790 hc        1 MOL     -0.000499
     33 H13         0.6000   -4.1670   -1.1030 hc        1 MOL     -0.000499
     34 H14        -1.0850   -4.6430   -2.3360 hc        1 MOL      0.021605
     35 H15        -0.8680   -6.1210   -1.4990 hc        1 MOL      0.021605
     36 H16        -1.5100   -6.6950   -3.5800 hx        1 MOL      0.135954
     37 H17         0.2410   -7.1570   -3.5340 hx        1 MOL      0.135954
     38 H18         0.8050   -5.2600   -4.8280 hn        1 MOL      0.231113
     39 H19        -0.5640   -5.7630   -5.5590 hn        1 MOL      0.231113
     40 H20        -0.7100   -4.5760   -4.5700 hn        1 MOL      0.231113
     41 N4          4.6350   -3.7740   -1.2000 n         1 MOL     -0.672579
     42 C13         5.7240   -3.3850   -2.1170 c3        1 MOL      0.372411
     43 C14         6.9360   -2.7980   -1.2930 c         1 MOL      0.310602
     44 O6          8.0530   -3.1760   -1.6450 o         1 MOL     -0.505233
     45 C15         5.2930   -2.4220   -3.1690 c3        1 MOL     -0.348057
     46 C16         4.4190   -1.2280   -2.6860 c         1 MOL      0.926143
     47 O7          3.1850   -1.2790   -2.8020 o         1 MOL     -0.856135
     48 O8          4.8780   -0.2360   -2.0470 o         1 MOL     -0.856135
     49 H21         4.2990   -3.1170   -0.5170 hn        1 MOL      0.308023
     50 H22         6.1120   -4.2640   -2.6370 h1        1 MOL      0.040574
     51 H23         4.7640   -3.0330   -3.8980 hc        1 MOL      0.086576
     52 H24         6.1430   -2.0050   -3.7080 hc        1 MOL      0.086576
     53 N5          6.5990   -1.8590   -0.3860 n         1 MOL     -0.047175
     54 C17         7.5900   -1.1850    0.5190 c3        1 MOL     -0.409924
     55 C18         7.8260    0.2890    0.2320 c         1 MOL      0.599093
     56 O9          8.7300    0.9520    0.8050 o         1 MOL     -0.532389
     57 H25         5.6470   -1.5420   -0.3080 hn        1 MOL      0.157780
     58 H26         8.5530   -1.6430    0.2890 h1        1 MOL      0.182030
     59 H27         7.2570   -1.3770    1.5310 h1        1 MOL      0.182030
     60 N6          6.9680    0.8620   -0.6420 n         1 MOL     -0.313492
     61 C19         7.1140    2.3250   -0.9360 c3        1 MOL      0.191388
     62 C20         5.7790    3.0510   -0.7610 c         1 MOL      0.572344
     63 O10         4.6890    2.5410   -0.7310 o         1 MOL     -0.566734
     64 C21         7.6110    2.5030   -2.3460 c3        1 MOL     -0.311204
     65 C22         9.0830    2.0080   -2.4650 c         1 MOL      0.530923
     66 N7          9.2570    0.9010   -3.1610 n         1 MOL     -0.658735
     67 O11        10.0410    2.4650   -1.8140 o         1 MOL     -0.493908
     68 H28         6.1370    0.4050   -0.9940 hn        1 MOL      0.194466
     69 H29         7.7540    2.8480   -0.2160 h1        1 MOL      0.013392
     70 H30         7.6400    3.5560   -2.5920 hc        1 MOL      0.072216
     71 H31         6.9410    1.9120   -2.9670 hc        1 MOL      0.072216
     72 H32         8.5210    0.5600   -3.7700 hn        1 MOL      0.338808
     73 H33        10.2150    0.6040   -3.2690 hn        1 MOL      0.338808
     74 N8          5.9150    4.3950   -0.8650 n         1 MOL     -0.360023
     75 C23         4.7780    5.2720   -0.8610 c3        1 MOL     -0.332700
     76 C24         3.7360    5.1320    0.2850 c         1 MOL      0.713776
     77 O12         4.1550    5.0080    1.4290 o         1 MOL     -0.502662
     78 H34         6.8060    4.8670   -0.7800 hn        1 MOL      0.335512
     79 H35         4.2810    5.1920   -1.8330 h1        1 MOL      0.132546
     80 H36         5.2770    6.2310   -0.7450 h1        1 MOL      0.132546
     81 N9          2.3750    5.1460    0.0640 n         1 MOL     -0.777839
     82 C25         1.2500    4.8060    0.9340 c3        1 MOL      0.647793
     83 C26         1.3900    3.2920    1.4050 c         1 MOL      0.229606
     84 O13         2.1760    2.4400    0.9290 o         1 MOL     -0.491672
     85 C27        -0.1460    4.9740    0.2660 c3        1 MOL     -0.385028
     86 C28        -0.5830    6.3840   -0.1390 ca        1 MOL     -0.066485
     87 C29        -1.1950    6.3880   -1.4100 ca        1 MOL      0.001247
     88 C30        -0.5660    7.5550    0.7060 ca        1 MOL      0.001247
     89 C31        -1.6650    7.6350   -1.9400 ca        1 MOL     -0.396965
     90 C32        -1.0720    8.7310    0.1630 ca        1 MOL     -0.396965
     91 C33        -1.6690    8.7730   -1.1120 ca        1 MOL      0.453234
     92 O14        -2.1780    9.9170   -1.5550 oh        1 MOL     -0.459506
     93 H37         2.1670    5.1780   -0.9240 hn        1 MOL      0.306909
     94 H38         1.3630    5.3420    1.8810 h1        1 MOL     -0.008938
     95 H39        -0.8740    4.6480    1.0110 hc        1 MOL      0.096925
     96 H40        -0.2170    4.2120   -0.5110 hc        1 MOL      0.096925
     97 H41        -1.2020    5.6230   -2.1750 ha        1 MOL      0.104622
     98 H42        -0.1160    7.5110    1.6920 ha        1 MOL      0.104622
     99 H43        -2.1050    7.6990   -2.9240 ha        1 MOL      0.187979
    100 H44        -1.1010    9.5880    0.8150 ha        1 MOL      0.187979
    101 H45        -2.4720    9.8970   -2.4760 ho        1 MOL      0.353589
    102 N10         0.5370    3.0060    2.4290 n         1 MOL     -0.303726
    103 C34         0.2040    1.6860    2.9010 c3        1 MOL      0.046100
    104 C35        -0.2320    0.6710    1.8510 c         1 MOL      0.182482
    105 O15         0.5080    0.4940    0.8820 o         1 MOL     -0.312059
    106 C36         1.3860    1.1150    3.7840 c3        1 MOL      0.311615
    107 C37         0.9810   -0.1730    4.5550 c3        1 MOL      0.020141
    108 C38         2.0570    2.1030    4.7810 c3        1 MOL     -0.305451
    109 C39        -0.1800   -0.0880    5.4920 c3        1 MOL     -0.138703
    110 H46        -0.0620    3.7920    2.6310 hn        1 MOL      0.214236
    111 H47        -0.6430    1.9050    3.5510 h1        1 MOL      0.040805
    112 H48         2.1440    0.7640    3.0910 hc        1 MOL      0.005291
    113 H49         1.8620   -0.5700    5.0610 hc        1 MOL      0.019832
    114 H50         0.7850   -0.9910    3.8670 hc        1 MOL      0.019832
    115 H51         2.9250    1.6110    5.2190 hc        1 MOL      0.066627
    116 H52         2.2960    3.0650    4.3340 hc        1 MOL      0.066627
    117 H53         1.3580    2.4610    5.5430 hc        1 MOL      0.066627
    118 H54        -1.1700    0.0580    5.0570 hc        1 MOL      0.026982
    119 H55        -0.1470   -1.0460    6.0100 hc        1 MOL      0.026982
    120 H56         0.0170    0.7060    6.2060 hc        1 MOL      0.026982
    121 N11        -1.2270   -0.0980    2.0960 n         1 MOL     -0.261243
    122 C40        -1.9020   -0.9410    1.1090 c3        1 MOL     -0.031107
    123 C41        -3.4330   -1.0620    1.2590 c         1 MOL      0.470117
    124 O16        -3.9320   -1.6650    2.2420 o         1 MOL     -0.501322
    125 C42        -1.3470   -2.3890    1.1690 c3        1 MOL     -0.111141
    126 O17         0.0730   -2.5760    0.9860 oh        1 MOL     -0.274880
    127 H57        -1.6900   -0.0770    2.9890 hn        1 MOL      0.270746
    128 H58        -1.6750   -0.5870    0.1010 h1        1 MOL      0.151777
    129 H59        -1.7850   -3.0180    0.3940 h1        1 MOL      0.112851
    130 H60        -1.4960   -2.7990    2.1680 h1        1 MOL      0.112851
    131 H61         0.2670   -1.9460    0.2900 ho        1 MOL      0.279542
    132 N12        -4.1480   -0.6160    0.2500 n         1 MOL     -0.502599
    133 C43        -5.5960   -0.6510    0.0400 c3        1 MOL      0.221688
    134 C44        -5.8500   -0.2250   -1.4350 c         1 MOL      0.532868
    135 O18        -5.0130    0.4980   -1.9780 o         1 MOL     -0.558520
    136 C45        -6.3030    0.3140    1.0170 c3        1 MOL     -0.333461
    137 H62        -3.6300   -0.1910   -0.5020 hn        1 MOL      0.231176
    138 H63        -5.9040   -1.6770    0.2710 h1        1 MOL      0.087212
    139 H64        -5.7460    0.3000    1.9510 hc        1 MOL      0.109745
    140 H65        -6.4440    1.3150    0.6080 hc        1 MOL      0.109745
    141 H66        -7.3040   -0.0300    1.2910 hc        1 MOL      0.109745
    142 N13        -6.9240   -0.5360   -2.1650 n         1 MOL     -0.496314
    143 C46        -8.0830   -1.2900   -1.6500 c3        1 MOL      0.192984
    144 C47        -9.4730   -0.8570   -2.1400 c         1 MOL      0.379504
    145 O19        -9.6640   -0.5930   -3.3300 o         1 MOL     -0.517845
    146 C48        -7.6510   -2.7380   -1.9840 c3        1 MOL     -0.127887
    147 H67        -7.1020   -0.3110   -3.1370 hn        1 MOL      0.320910
    148 H68        -8.0550   -1.1310   -0.5640 h1        1 MOL     -0.062520
    149 H69        -8.2830   -3.3500   -1.3310 hc        1 MOL      0.036397
    150 H70        -7.8260   -2.9440   -3.0380 hc        1 MOL      0.036397
    151 H71        -6.6110   -3.0060   -1.8410 hc        1 MOL      0.036397
    152 N14       -10.5260   -0.7300   -1.3150 n         1 MOL     -0.018337
    153 C49       -10.6650   -1.1970    0.0120 c3        1 MOL     -0.314390
    154 C50       -10.2490   -0.1350    1.0530 c         1 MOL      0.714417
    155 O20       -10.0980   -0.4860    2.2130 o         1 MOL     -0.593512
    156 C51       -12.1530   -1.5850    0.2460 c3        1 MOL     -0.263795
    157 C52       -13.1640   -0.4550    0.2630 c3        1 MOL     -0.156474
    158 C53       -13.9860   -0.2340   -1.0500 c         1 MOL      0.765145
    159 O21       -13.5690    0.6680   -1.8240 o         1 MOL     -0.674080
    160 O22       -15.0480   -0.7940   -1.2450 o         1 MOL     -0.674080
    161 H72       -11.3650   -0.4560   -1.7980 hn        1 MOL      0.150786
    162 H73       -10.0610   -2.0840    0.1950 h1        1 MOL      0.124761
    163 H74       -12.1670   -2.0860    1.2120 hc        1 MOL      0.123218
    164 H75       -12.5330   -2.1750   -0.5910 hc        1 MOL      0.123218
    165 H76       -12.6450    0.4640    0.5360 hc        1 MOL      0.030909
    166 H77       -13.8570   -0.6920    1.0750 hc        1 MOL      0.030909
    167 N15       -10.0170    1.0940    0.6520 n         1 MOL     -0.168514
    168 C54        -9.5830    2.1880    1.4470 c3        1 MOL     -0.304302
    169 H78        -9.8010    3.1220    0.9290 h1        1 MOL      0.116309
    170 H79       -10.1060    2.1730    2.4040 h1        1 MOL      0.116309
    171 H80        -8.5090    2.1110    1.6180 h1        1 MOL      0.116309
    172 H81       -10.0420    1.2580   -0.3440 hn        1 MOL      0.145348
    173 Ca1         2.7770    0.6750   -0.8680 Ca        1 MOL      1.773783
    174 O23         0.5870    1.8820   -1.9090 oh        1 MOL     -0.896757
    175 O24         0.6820   -0.9800   -1.5670 oh        1 MOL     -0.896757
    176 H82         0.6320    2.5650   -2.5680 ho        1 MOL      0.432948
    177 H83         1.4240   -1.4520   -1.9520 ho        1 MOL      0.432948
    178 H84        -0.3070    1.9060   -1.5890 ho        1 MOL      0.432948
    179 H85         0.1710   -0.6910   -2.3230 ho        1 MOL      0.432948
@<TRIPOS>BOND
     1    1    2 1   
     2    1    4 1   
     3    1    5 1   
     4    1    6 1   
     5    2    3 2   
     6    2    7 1   
     7    7    8 1   
     8    7   15 1   
     9    8    9 1   
    10    8   11 1   
    11    8   16 1   
    12    9   10 2   
    13    9   19 1   
    14   11   12 1   
    15   11   17 1   
    16   11   18 1   
    17   12   13 1   
    18   12   14 1   
    19   19   20 1   
    20   19   28 1   
    21   20   21 1   
    22   20   23 1   
    23   20   29 1   
    24   21   22 2   
    25   21   41 1   
    26   23   24 1   
    27   23   30 1   
    28   23   31 1   
    29   24   25 1   
    30   24   32 1   
    31   24   33 1   
    32   25   26 1   
    33   25   34 1   
    34   25   35 1   
    35   26   27 1   
    36   26   36 1   
    37   26   37 1   
    38   27   38 1   
    39   27   39 1   
    40   27   40 1   
    41   41   42 1   
    42   41   49 1   
    43   42   43 1   
    44   42   45 1   
    45   42   50 1   
    46   43   44 2   
    47   43   53 1   
    48   45   46 1   
    49   45   51 1   
    50   45   52 1   
    51   46   47 1   
    52   46   48 1   
    53   53   54 1   
    54   53   57 1   
    55   54   55 1   
    56   54   58 1   
    57   54   59 1   
    58   55   56 2   
    59   55   60 1   
    60   60   61 1   
    61   60   68 1   
    62   61   62 1   
    63   61   64 1   
    64   61   69 1   
    65   62   63 2   
    66   62   74 1   
    67   64   65 1   
    68   64   70 1   
    69   64   71 1   
    70   65   66 1   
    71   65   67 2   
    72   66   72 1   
    73   66   73 1   
    74   74   75 1   
    75   74   78 1   
    76   75   76 1   
    77   75   79 1   
    78   75   80 1   
    79   76   77 2   
    80   76   81 1   
    81   81   82 1   
    82   81   93 1   
    83   82   83 1   
    84   82   85 1   
    85   82   94 1   
    86   83   84 2   
    87   83  102 1   
    88   85   86 1   
    89   85   95 1   
    90   85   96 1   
    91   86   87 ar  
    92   86   88 ar  
    93   87   89 ar  
    94   87   97 1   
    95   88   90 ar  
    96   88   98 1   
    97   89   91 ar  
    98   89   99 1   
    99   90   91 ar  
   100   90  100 1   
   101   91   92 1   
   102   92  101 1   
   103  102  103 1   
   104  102  110 1   
   105  103  104 1   
   106  103  106 1   
   107  103  111 1   
   108  104  105 2   
   109  104  121 1   
   110  106  107 1   
   111  106  108 1   
   112  106  112 1   
   113  107  109 1   
   114  107  113 1   
   115  107  114 1   
   116  108  115 1   
   117  108  116 1   
   118  108  117 1   
   119  109  118 1   
   120  109  119 1   
   121  109  120 1   
   122  121  122 1   
   123  121  127 1   
   124  122  123 1   
   125  122  125 1   
   126  122  128 1   
   127  123  124 2   
   128  123  132 1   
   129  125  126 1   
   130  125  129 1   
   131  125  130 1   
   132  126  131 1   
   133  132  133 1   
   134  132  137 1   
   135  133  134 1   
   136  133  136 1   
   137  133  138 1   
   138  134  135 2   
   139  134  142 1   
   140  136  139 1   
   141  136  140 1   
   142  136  141 1   
   143  142  143 1   
   144  142  147 1   
   145  143  144 1   
   146  143  146 1   
   147  143  148 1   
   148  144  145 2   
   149  144  152 1   
   150  146  149 1   
   151  146  150 1   
   152  146  151 1   
   153  152  153 1   
   154  152  161 1   
   155  153  154 1   
   156  153  156 1   
   157  153  162 1   
   158  154  155 2   
   159  154  167 1   
   160  156  157 1   
   161  156  163 1   
   162  156  164 1   
   163  157  158 1   
   164  157  165 1   
   165  157  166 1   
   166  158  159 1   
   167  158  160 1   
   168  167  168 1   
   169  167  172 1   
   170  168  169 1   
   171  168  170 1   
   172  168  171 1   
   173  174  176 1   
   174  174  178 1   
   175  175  177 1   
   176  175  179 1   
@<TRIPOS>SUBSTRUCTURE
     1 MOL         1 TEMP              0 ****  ****    0 ROOT
