@<TRIPOS>MOLECULE
MOL
  187   181     1     0     0
SMALL
resp


@<TRIPOS>ATOM
      1 C1         -3.6440   -2.5790   -3.5490 c3        1 MOL     -0.700487
      2 C2         -4.8310   -2.0660   -2.7670 c         1 MOL      0.748536
      3 O1         -5.0580   -0.8330   -2.6540 o         1 MOL     -0.535709
      4 H1         -3.2360   -3.4590   -3.0520 hc        1 MOL      0.189368
      5 H2         -3.9600   -2.8450   -4.5570 hc        1 MOL      0.189368
      6 H3         -2.8790   -1.8050   -3.5990 hc        1 MOL      0.189368
      7 N1         -5.6220   -2.9910   -2.2710 n         1 MOL     -0.682693
      8 C3         -6.9110   -2.8080   -1.5960 c3        1 MOL      0.441175
      9 C4         -6.8760   -1.7500   -0.4890 c         1 MOL      0.400939
     10 O2         -5.9660   -1.8140    0.4040 o         1 MOL     -0.606079
     11 C5         -7.4750   -4.1730   -1.0980 c3        1 MOL     -0.386897
     12 C6         -8.9890   -4.1250   -0.8220 c         1 MOL      0.728370
     13 O3         -9.6460   -5.1830   -0.9270 o         1 MOL     -0.719374
     14 O4         -9.5650   -3.0560   -0.6170 o         1 MOL     -0.719374
     15 H4         -5.2710   -3.9380   -2.3350 hn        1 MOL      0.335219
     16 H5         -7.5830   -2.4610   -2.3880 h1        1 MOL     -0.007715
     17 H6         -6.9360   -4.6300   -0.2690 hc        1 MOL      0.074998
     18 H7         -7.2410   -4.9000   -1.8770 hc        1 MOL      0.074998
     19 N2         -7.7690   -0.8070   -0.6450 n         1 MOL     -0.323128
     20 C7         -7.9010    0.3250    0.2760 c3        1 MOL      0.273294
     21 C8         -7.0930    1.5360   -0.0830 c         1 MOL      0.421594
     22 O5         -7.0660    2.4570    0.7120 o         1 MOL     -0.549005
     23 C9         -9.3870    0.6120    0.4400 c3        1 MOL     -0.184403
     24 H8         -8.4500   -0.9300   -1.3700 hn        1 MOL      0.261364
     25 H9         -7.5490    0.0070    1.2600 h1        1 MOL      0.003490
     26 H10        -9.5500    1.2690    1.2990 hc        1 MOL      0.047679
     27 H11        -9.6720    1.1830   -0.4450 hc        1 MOL      0.047679
     28 H12        -9.9930   -0.2860    0.5260 hc        1 MOL      0.047679
     29 N3         -6.3820    1.5660   -1.2160 n         1 MOL     -0.299086
     30 C10        -5.3920    2.6080   -1.5090 c3        1 MOL     -0.034907
     31 C11        -4.0350    2.3670   -0.7440 c         1 MOL      0.482189
     32 O6         -3.2010    3.3480   -0.6340 o         1 MOL     -0.606197
     33 C12        -5.1680    2.6920   -2.9950 c3        1 MOL     -0.163147
     34 C13        -6.4140    3.0220   -3.8120 c         1 MOL      0.784955
     35 O7         -7.4750    3.4860   -3.2950 o         1 MOL     -0.734747
     36 O8         -6.2190    3.0080   -4.9720 o         1 MOL     -0.734747
     37 H13        -6.4920    0.8310   -1.9010 hn        1 MOL      0.180174
     38 H14        -5.7110    3.6090   -1.2030 h1        1 MOL      0.104069
     39 H15        -4.8560    1.7090   -3.3570 hc        1 MOL      0.044972
     40 H16        -4.4360    3.4640   -3.2090 hc        1 MOL      0.044972
     41 N4         -3.7100    1.1630   -0.2780 n         1 MOL     -0.322157
     42 C14        -2.4700    0.8290    0.4370 c3        1 MOL     -0.146952
     43 C15        -2.2520    1.7160    1.7410 c         1 MOL      0.626519
     44 O9         -2.9980    1.6090    2.6940 o         1 MOL     -0.577287
     45 H17        -4.4440    0.4840   -0.3800 hn        1 MOL      0.223341
     46 H18        -1.6170    0.9620   -0.2250 h1        1 MOL      0.108592
     47 H19        -2.5360   -0.2440    0.6120 h1        1 MOL      0.108592
     48 N5         -1.2100    2.5120    1.7050 n         1 MOL      0.024261
     49 C16        -0.8960    3.5630    2.6870 c3        1 MOL     -0.349208
     50 C17        -0.3110    4.8030    2.0010 c         1 MOL      0.638746
     51 O10        -0.0890    4.8770    0.8050 o         1 MOL     -0.477038
     52 C18         0.0930    2.9470    3.6970 c3        1 MOL     -0.145602
     53 C19        -0.5530    2.1450    4.8000 c         1 MOL      0.656635
     54 N6         -0.2940    0.8850    4.8390 n         1 MOL     -0.635472
     55 O11        -1.1110    2.7150    5.6930 o         1 MOL     -0.602684
     56 H20        -0.7420    2.5130    0.8030 hn        1 MOL      0.131570
     57 H21        -1.8320    3.8500    3.1680 h1        1 MOL      0.140990
     58 H22         0.6160    3.7790    4.1490 hc        1 MOL      0.065818
     59 H23         0.8080    2.3340    3.1400 hc        1 MOL      0.065818
     60 H24         0.3420    0.4440    4.1860 hn        1 MOL      0.279889
     61 H25        -0.6700    0.3290    5.5940 hn        1 MOL      0.279889
     62 N7         -0.0020    5.8870    2.7720 n         1 MOL     -0.408057
     63 C20         0.3990    7.1750    2.2120 c3        1 MOL     -0.167942
     64 C21         1.7870    7.0750    1.6790 c         1 MOL      0.634250
     65 O12         2.6260    6.7600    2.4900 o         1 MOL     -0.511070
     66 H26        -0.0650    5.7510    3.7650 hn        1 MOL      0.313208
     67 H27         0.3430    7.9370    2.9880 h1        1 MOL      0.098815
     68 H28        -0.2650    7.5410    1.4320 h1        1 MOL      0.098815
     69 N8          2.0830    7.4690    0.4240 n         1 MOL     -0.533117
     70 C22         3.4530    7.5190   -0.1960 c3        1 MOL     -0.193740
     71 C23         3.8520    6.2000   -0.7800 c         1 MOL      0.536768
     72 O13         4.9720    6.1350   -1.2950 o         1 MOL     -0.591158
     73 C24         3.7140    8.6570   -1.2280 c3        1 MOL      0.507362
     74 C25         3.0710    8.4660   -2.5750 c3        1 MOL     -0.388260
     75 O14         3.2390    9.8220   -0.6270 oh        1 MOL     -0.615441
     76 H29         1.4000    8.0120   -0.0890 hn        1 MOL      0.297956
     77 H30         4.1860    7.6830    0.5910 h1        1 MOL      0.132704
     78 H31         4.7880    8.8210   -1.2650 h1        1 MOL      0.025594
     79 H32         2.3000    9.6250   -0.4970 ho        1 MOL      0.352163
     80 H33         2.7940    9.4060   -3.0520 hc        1 MOL      0.091800
     81 H34         3.6310    7.7580   -3.1780 hc        1 MOL      0.091800
     82 H35         2.1610    7.8840   -2.3980 hc        1 MOL      0.091800
     83 N9          2.8960    5.2760   -0.7850 n         1 MOL     -0.148806
     84 C26         3.1320    3.8720   -1.2880 c3        1 MOL     -0.008749
     85 C27         2.8690    2.8980   -0.1250 c         1 MOL      0.453987
     86 O15         2.5340    3.2980    1.0510 o         1 MOL     -0.473335
     87 C28         2.4340    3.5270   -2.5830 c3        1 MOL     -0.006556
     88 C29         0.9470    3.8590   -2.4570 c3        1 MOL      0.229893
     89 C30         3.1440    4.2690   -3.6900 c3        1 MOL     -0.327751
     90 C31         0.0920    3.0420   -3.4030 c3        1 MOL     -0.312201
     91 H36         2.0930    5.3650   -0.1930 hn        1 MOL      0.110442
     92 H37         4.1830    3.6850   -1.4770 h1        1 MOL      0.064503
     93 H38         2.4660    2.4620   -2.8300 hc        1 MOL      0.072725
     94 H39         0.7440    4.9270   -2.5460 hc        1 MOL     -0.007098
     95 H40         0.6400    3.5990   -1.4460 hc        1 MOL     -0.007098
     96 H41         2.6330    3.9910   -4.6140 hc        1 MOL      0.080279
     97 H42         3.1810    5.3480   -3.5340 hc        1 MOL      0.080279
     98 H43         4.1260    3.8900   -3.9580 hc        1 MOL      0.080279
     99 H44         0.2700    1.9890   -3.1840 hc        1 MOL      0.071925
    100 H45        -0.9360    3.3180   -3.1680 hc        1 MOL      0.071925
    101 H46         0.2930    3.2420   -4.4530 hc        1 MOL      0.071925
    102 N10         2.8940    1.6030   -0.4350 n         1 MOL     -0.599719
    103 C32         2.5980    0.5230    0.5370 c3        1 MOL      0.252916
    104 C33         3.4490   -0.7260    0.4510 c         1 MOL      0.538628
    105 O16         3.0190   -1.9000    0.2580 o         1 MOL     -0.514227
    106 C34         1.1540    0.1080    0.4060 c3        1 MOL      0.023723
    107 C35         0.5890   -0.4920    1.6620 c         1 MOL      0.558405
    108 O17         1.1980   -0.4440    2.7550 o         1 MOL     -0.701610
    109 O18        -0.5110   -1.0730    1.6640 o         1 MOL     -0.701610
    110 H47         3.2740    1.3350   -1.3320 hn        1 MOL      0.297609
    111 H48         2.7140    0.8560    1.5620 h1        1 MOL      0.019648
    112 H49         1.0040   -0.5520   -0.4360 hc        1 MOL     -0.013581
    113 H50         0.5930    1.0030    0.1220 hc        1 MOL     -0.013581
    114 N11         4.7490   -0.5000    0.5390 n         1 MOL     -0.533190
    115 C36         5.7880   -1.4850    0.5350 c3        1 MOL      0.062833
    116 C37         5.6300   -2.5510   -0.6060 c         1 MOL      0.285766
    117 O19         5.2440   -2.1980   -1.6710 o         1 MOL     -0.353273
    118 C38         7.1030   -0.6930    0.3660 c3        1 MOL     -0.160233
    119 C39         8.3560   -1.5120    0.2760 ca        1 MOL      0.047044
    120 C40         9.0570   -1.8270    1.4520 ca        1 MOL     -0.108868
    121 C41         8.7640   -1.9820   -0.9680 ca        1 MOL     -0.108868
    122 C42        10.1310   -2.7190    1.3680 ca        1 MOL     -0.140451
    123 C43         9.9540   -2.7580   -1.0470 ca        1 MOL     -0.140451
    124 C44        10.6400   -3.1340    0.0840 ca        1 MOL     -0.129828
    125 H51         4.9810    0.4750    0.6760 hn        1 MOL      0.317818
    126 H52         5.8220   -1.9250    1.5320 h1        1 MOL      0.106845
    127 H53         7.1730    0.0780    1.1340 hc        1 MOL      0.082310
    128 H54         7.0270   -0.0970   -0.5500 hc        1 MOL      0.082310
    129 H55         8.7940   -1.3980    2.4060 ha        1 MOL      0.108536
    130 H56         8.2450   -1.6440   -1.8490 ha        1 MOL      0.108536
    131 H57        10.5850   -3.0950    2.2780 ha        1 MOL      0.110924
    132 H58        10.3210   -3.1410   -1.9790 ha        1 MOL      0.110924
    133 H59        11.3670   -3.9280    0.0480 ha        1 MOL      0.114449
    134 N12         5.8690   -3.8660   -0.2880 n         1 MOL     -0.111022
    135 C45         5.8300   -4.9080   -1.3210 c3        1 MOL     -0.046962
    136 C46         4.5790   -4.9890   -2.1090 c         1 MOL      0.303150
    137 O20         4.7020   -5.2840   -3.2530 o         1 MOL     -0.492645
    138 C47         5.9960   -6.2540   -0.5010 c3        1 MOL      0.056304
    139 C48         6.7590   -5.9170    0.7380 c3        1 MOL     -0.045126
    140 C49         6.4270   -4.4620    0.9890 c3        1 MOL      0.101457
    141 H60         6.6480   -4.7090   -2.0130 h1        1 MOL      0.095326
    142 H61         5.0260   -6.6070   -0.1530 hc        1 MOL      0.006785
    143 H62         6.5250   -7.0650   -1.0030 hc        1 MOL      0.006785
    144 H63         6.6100   -6.4860    1.6480 hc        1 MOL      0.026897
    145 H64         7.8280   -5.9370    0.5170 hc        1 MOL      0.026897
    146 H65         5.6470   -4.3220    1.7370 h1        1 MOL     -0.012630
    147 H66         7.1870   -3.8700    1.4960 h1        1 MOL     -0.012630
    148 N13         3.3870   -4.6200   -1.6450 n         1 MOL     -0.021877
    149 C50         2.1090   -4.6610   -2.4120 c3        1 MOL     -0.418900
    150 C51         2.0660   -3.6400   -3.6020 c         1 MOL      0.483150
    151 O21         1.2980   -3.8730   -4.5400 o         1 MOL     -0.519554
    152 C52         0.9420   -4.2760   -1.4330 c3        1 MOL      0.049951
    153 C53         0.7050   -5.4820   -0.4790 c3        1 MOL      0.118769
    154 C54        -0.4170   -5.2400    0.5270 c         1 MOL      0.455189
    155 O22        -0.1970   -4.4260    1.5170 o         1 MOL     -0.680183
    156 O23        -1.5890   -5.6890    0.2950 o         1 MOL     -0.680183
    157 H67         3.3840   -4.2750   -0.6900 hn        1 MOL      0.190357
    158 H68         1.8470   -5.6380   -2.8180 h1        1 MOL      0.190429
    159 H69         0.0140   -4.1870   -1.9980 hc        1 MOL      0.063366
    160 H70         1.1530   -3.3350   -0.9300 hc        1 MOL      0.063366
    161 H71         1.6340   -5.7580    0.0170 hc        1 MOL     -0.038678
    162 H72         0.4160   -6.2970   -1.1460 hc        1 MOL     -0.038678
    163 N14         3.0150   -2.6460   -3.5970 n         1 MOL     -0.095754
    164 C55         3.1710   -1.6730   -4.6710 c3        1 MOL     -0.193121
    165 H73         2.1880   -1.3820   -5.0420 h1        1 MOL      0.077658
    166 H74         3.6910   -0.7930   -4.2930 h1        1 MOL      0.077658
    167 H75         3.7480   -2.1160   -5.4840 h1        1 MOL      0.077658
    168 H76         3.6230   -2.5580   -2.8090 hn        1 MOL      0.125237
    169 Ca1        -1.7620   -2.9600    2.8900 Ca        1 MOL      1.673030
    170 O24        -4.4320   -3.5610    3.7250 oh        1 MOL     -0.792682
    171 H77        -5.0780   -3.9820    3.1490 ho        1 MOL      0.391754
    172 H78        -4.9310   -2.8500    4.1460 ho        1 MOL      0.391754
    173 O25         0.8090   -2.8640    3.8990 oh        1 MOL     -0.792682
    174 H79         1.0550   -2.0550    3.4460 ho        1 MOL      0.391754
    175 H80         1.6250   -3.1680    4.2940 ho        1 MOL      0.391754
    176 O26        -3.0750   -0.8150    3.8330 oh        1 MOL     -0.792682
    177 H81        -3.8680   -1.1410    4.2550 ho        1 MOL      0.391754
    178 H82        -3.1810    0.1360    3.8160 ho        1 MOL      0.391754
    179 O27        -2.3700   -5.7820    2.9010 oh        1 MOL     -0.792682
    180 H83        -1.8920   -5.8820    2.0810 ho        1 MOL      0.391754
    181 H84        -2.1280   -6.5520    3.4170 ho        1 MOL      0.391754
    182 O28        -3.4250   -2.9670    0.6710 oh        1 MOL     -0.792682
    183 H85        -3.6090   -3.7000    0.0870 ho        1 MOL      0.391754
    184 H86        -4.2670   -2.5240    0.7760 ho        1 MOL      0.391754
    185 O29        -1.7920   -3.2850    5.4080 oh        1 MOL     -0.792682
    186 H87        -2.0190   -3.8180    6.1660 ho        1 MOL      0.391754
    187 H88        -1.3580   -2.5110    5.7840 ho        1 MOL      0.391754
@<TRIPOS>BOND
     1    1    2 1   
     2    1    4 1   
     3    1    5 1   
     4    1    6 1   
     5    2    3 2   
     6    2    7 1   
     7    7    8 1   
     8    7   15 1   
     9    8    9 1   
    10    8   11 1   
    11    8   16 1   
    12    9   10 2   
    13    9   19 1   
    14   11   12 1   
    15   11   17 1   
    16   11   18 1   
    17   12   13 1   
    18   12   14 1   
    19   19   20 1   
    20   19   24 1   
    21   20   21 1   
    22   20   23 1   
    23   20   25 1   
    24   21   22 2   
    25   21   29 1   
    26   23   26 1   
    27   23   27 1   
    28   23   28 1   
    29   29   30 1   
    30   29   37 1   
    31   30   31 1   
    32   30   33 1   
    33   30   38 1   
    34   31   32 2   
    35   31   41 1   
    36   33   34 1   
    37   33   39 1   
    38   33   40 1   
    39   34   35 1   
    40   34   36 1   
    41   41   42 1   
    42   41   45 1   
    43   42   43 1   
    44   42   46 1   
    45   42   47 1   
    46   43   44 2   
    47   43   48 1   
    48   48   49 1   
    49   48   56 1   
    50   49   50 1   
    51   49   52 1   
    52   49   57 1   
    53   50   51 2   
    54   50   62 1   
    55   52   53 1   
    56   52   58 1   
    57   52   59 1   
    58   53   54 1   
    59   53   55 2   
    60   54   60 1   
    61   54   61 1   
    62   62   63 1   
    63   62   66 1   
    64   63   64 1   
    65   63   67 1   
    66   63   68 1   
    67   64   65 2   
    68   64   69 1   
    69   69   70 1   
    70   69   76 1   
    71   70   71 1   
    72   70   73 1   
    73   70   77 1   
    74   71   72 2   
    75   71   83 1   
    76   73   74 1   
    77   73   75 1   
    78   73   78 1   
    79   74   80 1   
    80   74   81 1   
    81   74   82 1   
    82   75   79 1   
    83   83   84 1   
    84   83   91 1   
    85   84   85 1   
    86   84   87 1   
    87   84   92 1   
    88   85   86 2   
    89   85  102 1   
    90   87   88 1   
    91   87   89 1   
    92   87   93 1   
    93   88   90 1   
    94   88   94 1   
    95   88   95 1   
    96   89   96 1   
    97   89   97 1   
    98   89   98 1   
    99   90   99 1   
   100   90  100 1   
   101   90  101 1   
   102  102  103 1   
   103  102  110 1   
   104  103  104 1   
   105  103  106 1   
   106  103  111 1   
   107  104  105 2   
   108  104  114 1   
   109  106  107 1   
   110  106  112 1   
   111  106  113 1   
   112  107  108 1   
   113  107  109 1   
   114  114  115 1   
   115  114  125 1   
   116  115  116 1   
   117  115  118 1   
   118  115  126 1   
   119  116  117 2   
   120  116  134 1   
   121  118  119 1   
   122  118  127 1   
   123  118  128 1   
   124  119  120 ar  
   125  119  121 ar  
   126  120  122 ar  
   127  120  129 1   
   128  121  123 ar  
   129  121  130 1   
   130  122  124 ar  
   131  122  131 1   
   132  123  124 ar  
   133  123  132 1   
   134  124  133 1   
   135  134  135 1   
   136  134  140 1   
   137  135  136 1   
   138  135  138 1   
   139  135  141 1   
   140  136  137 2   
   141  136  148 1   
   142  138  139 1   
   143  138  142 1   
   144  138  143 1   
   145  139  140 1   
   146  139  144 1   
   147  139  145 1   
   148  140  146 1   
   149  140  147 1   
   150  148  149 1   
   151  148  157 1   
   152  149  150 1   
   153  149  152 1   
   154  149  158 1   
   155  150  151 2   
   156  150  163 1   
   157  152  153 1   
   158  152  159 1   
   159  152  160 1   
   160  153  154 1   
   161  153  161 1   
   162  153  162 1   
   163  154  155 1   
   164  154  156 1   
   165  163  164 1   
   166  163  168 1   
   167  164  165 1   
   168  164  166 1   
   169  164  167 1   
   170  170  171 1   
   171  170  172 1   
   172  173  174 1   
   173  173  175 1   
   174  176  177 1   
   175  176  178 1   
   176  179  180 1   
   177  179  181 1   
   178  182  183 1   
   179  182  184 1   
   180  185  186 1   
   181  185  187 1   
@<TRIPOS>SUBSTRUCTURE
     1 MOL         1 TEMP              0 ****  ****    0 ROOT
