@<TRIPOS>MOLECULE
MOL
  182   178     1     0     0
SMALL
resp


@<TRIPOS>ATOM
      1 C1          0.9000   -4.1310    6.1800 c3        1 MOL     -0.443468
      2 C2          0.9640   -3.8100    4.6840 c         1 MOL      0.743678
      3 O1         -0.0490   -3.5950    3.9910 o         1 MOL     -0.597988
      4 H1          0.7140   -5.1960    6.3150 hc        1 MOL      0.121352
      5 H2          1.8470   -3.8660    6.6490 hc        1 MOL      0.121352
      6 H3          0.0930   -3.5600    6.6400 hc        1 MOL      0.121352
      7 N1          2.1890   -3.7530    4.1890 n         1 MOL     -0.567287
      8 C3          2.4760   -3.4720    2.7590 c3        1 MOL      0.067984
      9 C4          2.6200   -4.6820    1.8150 c         1 MOL      0.590647
     10 O2          3.1140   -5.7500    2.1480 o         1 MOL     -0.539428
     11 C5          3.4990   -2.4230    2.6050 c3        1 MOL     -0.093041
     12 C6          3.4870   -1.6550    1.2700 c         1 MOL      0.314638
     13 O3          4.2550   -0.6780    1.2220 o         1 MOL     -0.597128
     14 O4          2.6840   -1.8550    0.3270 o         1 MOL     -0.597128
     15 H4          2.9980   -3.7970    4.7850 hn        1 MOL      0.323035
     16 H5          1.6170   -2.9450    2.3400 h1        1 MOL     -0.089267
     17 H6          4.4690   -2.9220    2.6160 hc        1 MOL      0.077034
     18 H7          3.5340   -1.7460    3.4640 hc        1 MOL      0.077034
     19 N2          2.0070   -4.4970    0.6240 n         1 MOL     -0.241933
     20 C7          2.1310   -5.3510   -0.5710 c3        1 MOL     -0.156175
     21 C8          3.3810   -5.2350   -1.4330 c         1 MOL      0.556053
     22 O5          3.9290   -6.2300   -1.8430 o         1 MOL     -0.538417
     23 C9          0.8570   -5.2310   -1.4420 c3        1 MOL      0.165422
     24 C10        -0.4820   -5.7310   -0.8130 c3        1 MOL     -0.149004
     25 C11        -1.6370   -5.5550   -1.8310 c3        1 MOL      0.058604
     26 C12        -2.7140   -6.5660   -1.7000 c3        1 MOL      0.045250
     27 N3         -3.7690   -6.3840   -2.7180 n4        1 MOL     -0.326397
     28 H8          1.5640   -3.6040    0.4490 hn        1 MOL      0.110502
     29 H9          2.1330   -6.3990   -0.2590 h1        1 MOL      0.111136
     30 H10         1.0730   -5.8570   -2.3120 hc        1 MOL     -0.023234
     31 H11         0.7590   -4.2460   -1.9040 hc        1 MOL     -0.023234
     32 H12        -0.6830   -5.0400    0.0080 hc        1 MOL      0.052918
     33 H13        -0.2650   -6.7550   -0.5260 hc        1 MOL      0.052918
     34 H14        -1.1860   -5.5680   -2.8210 hc        1 MOL     -0.007847
     35 H15        -2.0340   -4.5520   -1.6820 hc        1 MOL     -0.007847
     36 H16        -3.1280   -6.5410   -0.6950 hx        1 MOL      0.090173
     37 H17        -2.2910   -7.5720   -1.7660 hx        1 MOL      0.090173
     38 H18        -4.2470   -5.4990   -2.7750 hn        1 MOL      0.310742
     39 H19        -3.3990   -6.3720   -3.6550 hn        1 MOL      0.310742
     40 H20        -4.4510   -7.1180   -2.5800 hn        1 MOL      0.310742
     41 N4          3.8830   -4.0170   -1.6480 n         1 MOL     -0.338672
     42 C13         5.1350   -3.8240   -2.4390 c3        1 MOL     -0.033176
     43 C14         6.3430   -3.3910   -1.5810 c         1 MOL      0.588425
     44 O6          7.4560   -3.6310   -1.9120 o         1 MOL     -0.536386
     45 C15         5.1020   -2.7470   -3.5060 c3        1 MOL     -0.230118
     46 C16         4.5170   -1.3720   -3.1770 c         1 MOL      0.657725
     47 O7          4.2840   -1.0080   -1.9740 o         1 MOL     -0.686228
     48 O8          4.3670   -0.5850   -4.1610 o         1 MOL     -0.686228
     49 H21         3.4840   -3.1770   -1.2570 hn        1 MOL      0.186158
     50 H22         5.4180   -4.7620   -2.9210 h1        1 MOL      0.112675
     51 H23         4.5750   -3.1180   -4.3880 hc        1 MOL      0.089289
     52 H24         6.0900   -2.5580   -3.9190 hc        1 MOL      0.089289
     53 N5          5.9990   -2.8630   -0.3890 n         1 MOL     -0.273276
     54 C17         7.0470   -2.3400    0.5540 c3        1 MOL     -0.355860
     55 C18         7.5890   -0.9260    0.1760 c         1 MOL      0.551929
     56 O9          8.7320   -0.6400    0.5230 o         1 MOL     -0.548459
     57 H25         5.1540   -2.3320   -0.4940 hn        1 MOL      0.188848
     58 H26         7.8600   -3.0660    0.4380 h1        1 MOL      0.174686
     59 H27         6.7090   -2.2600    1.5900 h1        1 MOL      0.174686
     60 N6          6.8690   -0.1840   -0.6690 n         1 MOL     -0.170127
     61 C19         7.1450    1.1720   -1.1210 c3        1 MOL      0.119528
     62 C20         6.0530    2.1440   -0.6250 c         1 MOL      0.407409
     63 O10         4.9000    1.8160   -0.7260 o         1 MOL     -0.492932
     64 C21         7.1680    1.1660   -2.6440 c3        1 MOL     -0.228876
     65 C22         7.5530    2.5390   -3.2270 c         1 MOL      0.709324
     66 N7          7.1540    2.7890   -4.4640 n         1 MOL     -0.834904
     67 O11         8.2540    3.3960   -2.6680 o         1 MOL     -0.583053
     68 H28         5.9660   -0.5280   -0.9860 hn        1 MOL      0.101900
     69 H29         8.0900    1.4540   -0.6650 h1        1 MOL      0.005941
     70 H30         6.1600    0.9800   -3.0320 hc        1 MOL      0.114898
     71 H31         7.8860    0.4150   -2.9770 hc        1 MOL      0.114898
     72 H32         6.7910    2.1050   -5.1100 hn        1 MOL      0.368046
     73 H33         7.3390    3.6860   -4.8730 hn        1 MOL      0.368046
     74 N8          6.4370    3.3400   -0.2140 n         1 MOL     -0.309643
     75 C23         5.5630    4.4980   -0.1730 c3        1 MOL     -0.219664
     76 C24         4.5300    4.3570    0.9250 c         1 MOL      0.633024
     77 O12         4.6970    3.9760    2.0820 o         1 MOL     -0.525910
     78 H34         7.4300    3.4750   -0.0960 hn        1 MOL      0.301356
     79 H35         5.2260    4.6180   -1.2050 h1        1 MOL      0.136283
     80 H36         6.1150    5.3810    0.1450 h1        1 MOL      0.136283
     81 N9          3.3130    4.6100    0.4920 n         1 MOL     -0.629702
     82 C25         2.1190    4.4720    1.3050 c3        1 MOL      0.511419
     83 C26         1.8230    3.0380    1.8360 c         1 MOL      0.376939
     84 O13         2.4200    2.1080    1.3080 o         1 MOL     -0.472664
     85 C27         1.0230    5.0190    0.3490 c3        1 MOL     -0.466395
     86 C28         1.0140    6.5320    0.1500 ca        1 MOL     -0.012625
     87 C29         0.9970    6.9810   -1.1720 ca        1 MOL     -0.013687
     88 C30         1.0000    7.5690    1.1780 ca        1 MOL     -0.013687
     89 C31         0.9890    8.3610   -1.5200 ca        1 MOL     -0.443783
     90 C32         0.9550    8.8990    0.8810 ca        1 MOL     -0.443783
     91 C33         0.9500    9.3540   -0.4430 ca        1 MOL      0.522340
     92 O14         0.9340   10.6530   -0.8250 oh        1 MOL     -0.495551
     93 H37         3.1170    4.8110   -0.4820 hn        1 MOL      0.267697
     94 H38         2.2370    5.1290    2.1750 h1        1 MOL      0.006529
     95 H39         0.0580    4.8270    0.8290 hc        1 MOL      0.139506
     96 H40         1.0880    4.4840   -0.5900 hc        1 MOL      0.139506
     97 H41         1.0960    6.2640   -1.9680 ha        1 MOL      0.104879
     98 H42         1.0330    7.3100    2.2300 ha        1 MOL      0.104879
     99 H43         1.0460    8.6580   -2.5490 ha        1 MOL      0.202140
    100 H44         0.8490    9.6500    1.6470 ha        1 MOL      0.202140
    101 H45         1.1290   10.7850   -1.7590 ho        1 MOL      0.362414
    102 N10         0.8150    2.8700    2.6330 n         1 MOL     -0.469458
    103 C34         0.2150    1.5680    3.1110 c3        1 MOL      0.001054
    104 C35        -0.1430    0.5220    2.0690 c         1 MOL      0.335455
    105 O15         0.7790    0.0310    1.3830 o         1 MOL     -0.292263
    106 C36         1.2250    0.8580    4.1640 c3        1 MOL      0.226495
    107 C37         0.7540   -0.2980    5.0270 c3        1 MOL     -0.050086
    108 C38         1.9390    1.8740    5.1610 c3        1 MOL     -0.155100
    109 C39        -0.2300    0.0400    6.1920 c3        1 MOL     -0.440211
    110 H46         0.2550    3.6880    2.8050 hn        1 MOL      0.286233
    111 H47        -0.6690    1.9160    3.6430 h1        1 MOL      0.088863
    112 H48         2.0600    0.4880    3.5710 hc        1 MOL      0.026349
    113 H49         1.6650   -0.7860    5.3630 hc        1 MOL      0.071021
    114 H50         0.1960   -0.9930    4.4140 hc        1 MOL      0.071021
    115 H51         1.1660    2.4590    5.6620 hc        1 MOL      0.033561
    116 H52         2.5760    1.3770    5.8960 hc        1 MOL      0.033561
    117 H53         2.4010    2.6230    4.5180 hc        1 MOL      0.033561
    118 H54         0.3630    0.5120    6.9680 hc        1 MOL      0.112606
    119 H55        -1.0420    0.6830    5.8440 hc        1 MOL      0.112606
    120 H56        -0.6550   -0.8850    6.5660 hc        1 MOL      0.112606
    121 N11        -1.4430    0.1750    1.9470 n         1 MOL     -0.325937
    122 C40        -2.0010   -0.6440    0.8030 c3        1 MOL     -0.219615
    123 C41        -3.4710   -0.6310    0.9170 c         1 MOL      0.649887
    124 O16        -4.1320   -1.0780    1.9170 o         1 MOL     -0.527199
    125 C42        -1.5940   -2.1180    0.8980 c3        1 MOL     -0.188268
    126 O17        -0.2960   -2.3480    0.4420 oh        1 MOL     -0.351616
    127 H57        -2.1550    0.5450    2.5590 hn        1 MOL      0.280546
    128 H58        -1.7050   -0.1710   -0.1320 h1        1 MOL      0.152827
    129 H59        -2.2700   -2.7700    0.3490 h1        1 MOL      0.142917
    130 H60        -1.6640   -2.4720    1.9280 h1        1 MOL      0.142917
    131 H61         0.2360   -1.7320    0.9410 ho        1 MOL      0.439756
    132 N12        -4.0030   -0.2270   -0.2220 n         1 MOL     -0.628097
    133 C43        -5.4090   -0.3220   -0.4740 c3        1 MOL      0.178976
    134 C44        -5.7110   -0.4680   -2.0030 c         1 MOL      0.530652
    135 O18        -4.8200   -0.2240   -2.8500 o         1 MOL     -0.567004
    136 C45        -5.9740    0.9800    0.1740 c3        1 MOL     -0.058766
    137 H62        -3.4390    0.1640   -0.9610 hn        1 MOL      0.325007
    138 H63        -5.7920   -1.1780    0.0700 h1        1 MOL      0.066970
    139 H64        -5.6450    1.8290   -0.4190 hc        1 MOL      0.031249
    140 H65        -7.0550    1.1180    0.1850 hc        1 MOL      0.031249
    141 H66        -5.5540    1.1200    1.1680 hc        1 MOL      0.031249
    142 N13        -6.9520   -0.8130   -2.3820 n         1 MOL     -0.576315
    143 C46        -8.1290   -0.9990   -1.5150 c3        1 MOL      0.390090
    144 C47        -9.4390   -0.4140   -2.1450 c         1 MOL      0.330782
    145 O19        -9.3850   -0.0820   -3.3470 o         1 MOL     -0.518525
    146 C48        -8.2640   -2.4770   -1.2010 c3        1 MOL     -0.293595
    147 H67        -7.1400   -0.8080   -3.3840 hn        1 MOL      0.332616
    148 H68        -7.9570   -0.5420   -0.5390 h1        1 MOL     -0.041719
    149 H69        -8.9290   -3.0060   -1.8780 hc        1 MOL      0.070279
    150 H70        -7.3260   -3.0320   -1.1270 hc        1 MOL      0.070279
    151 H71        -8.6520   -2.6380   -0.1910 hc        1 MOL      0.070279
    152 N14       -10.5510   -0.1710   -1.4500 n         1 MOL     -0.257855
    153 C49       -10.7660   -0.2920    0.0030 c3        1 MOL     -0.091892
    154 C50       -10.0300    0.7440    0.8420 c         1 MOL      0.579474
    155 O20        -9.6140    0.3940    1.9260 o         1 MOL     -0.560977
    156 C51       -12.2500   -0.4080    0.3400 c3        1 MOL      0.013126
    157 C52       -13.1160    0.8670    0.2600 c3        1 MOL      0.041680
    158 C53       -13.2380    1.3130   -1.1910 c         1 MOL      0.574028
    159 O21       -12.2590    1.9540   -1.7360 o         1 MOL     -0.633031
    160 O22       -14.2850    0.9910   -1.7790 o         1 MOL     -0.633031
    161 H72       -11.2170    0.4690   -1.8690 hn        1 MOL      0.242321
    162 H73       -10.2580   -1.2090    0.2920 h1        1 MOL      0.011424
    163 H74       -12.4540   -0.7750    1.3460 hc        1 MOL      0.019302
    164 H75       -12.6510   -1.1370   -0.3670 hc        1 MOL      0.019302
    165 H76       -12.7080    1.6400    0.9090 hc        1 MOL     -0.030931
    166 H77       -14.0980    0.6500    0.6800 hc        1 MOL     -0.030931
    167 N15        -9.9730    2.0370    0.3780 n         1 MOL     -0.174113
    168 C54        -9.1870    3.0790    1.0030 c3        1 MOL     -0.297395
    169 H78        -9.3370    4.0170    0.4690 h1        1 MOL      0.109223
    170 H79        -9.5000    3.1980    2.0410 h1        1 MOL      0.109223
    171 H80        -8.1310    2.8080    0.9710 h1        1 MOL      0.109223
    172 H81       -10.4490    2.2760   -0.4760 hn        1 MOL      0.163750
    173 Ca1         2.6360    0.4640   -0.7100 Ca        1 MOL      1.709205
    174 O23         0.4430    2.0120   -1.2480 oh        1 MOL     -0.878954
    175 H82         0.5210    2.7830   -1.8110 ho        1 MOL      0.414281
    176 H83        -0.4340    1.6790   -1.4120 ho        1 MOL      0.414281
    177 O24         0.7260   -0.9860   -1.8400 oh        1 MOL     -0.878954
    178 H84         0.9830   -1.5520   -2.5620 ho        1 MOL      0.414281
    179 H85         0.3440   -1.5840   -1.1920 ho        1 MOL      0.414281
    180 O25         3.0030    1.5280   -3.1390 oh        1 MOL     -0.878954
    181 H86         2.1700    1.5650   -3.5960 ho        1 MOL      0.414281
    182 H87         3.5700    1.0080   -3.7170 ho        1 MOL      0.414281
@<TRIPOS>BOND
     1    1    2 1   
     2    1    4 1   
     3    1    5 1   
     4    1    6 1   
     5    2    3 2   
     6    2    7 1   
     7    7    8 1   
     8    7   15 1   
     9    8    9 1   
    10    8   11 1   
    11    8   16 1   
    12    9   10 2   
    13    9   19 1   
    14   11   12 1   
    15   11   17 1   
    16   11   18 1   
    17   12   13 1   
    18   12   14 1   
    19   19   20 1   
    20   19   28 1   
    21   20   21 1   
    22   20   23 1   
    23   20   29 1   
    24   21   22 2   
    25   21   41 1   
    26   23   24 1   
    27   23   30 1   
    28   23   31 1   
    29   24   25 1   
    30   24   32 1   
    31   24   33 1   
    32   25   26 1   
    33   25   34 1   
    34   25   35 1   
    35   26   27 1   
    36   26   36 1   
    37   26   37 1   
    38   27   38 1   
    39   27   39 1   
    40   27   40 1   
    41   41   42 1   
    42   41   49 1   
    43   42   43 1   
    44   42   45 1   
    45   42   50 1   
    46   43   44 2   
    47   43   53 1   
    48   45   46 1   
    49   45   51 1   
    50   45   52 1   
    51   46   47 1   
    52   46   48 1   
    53   53   54 1   
    54   53   57 1   
    55   54   55 1   
    56   54   58 1   
    57   54   59 1   
    58   55   56 2   
    59   55   60 1   
    60   60   61 1   
    61   60   68 1   
    62   61   62 1   
    63   61   64 1   
    64   61   69 1   
    65   62   63 2   
    66   62   74 1   
    67   64   65 1   
    68   64   70 1   
    69   64   71 1   
    70   65   66 1   
    71   65   67 2   
    72   66   72 1   
    73   66   73 1   
    74   74   75 1   
    75   74   78 1   
    76   75   76 1   
    77   75   79 1   
    78   75   80 1   
    79   76   77 2   
    80   76   81 1   
    81   81   82 1   
    82   81   93 1   
    83   82   83 1   
    84   82   85 1   
    85   82   94 1   
    86   83   84 2   
    87   83  102 1   
    88   85   86 1   
    89   85   95 1   
    90   85   96 1   
    91   86   87 ar  
    92   86   88 ar  
    93   87   89 ar  
    94   87   97 1   
    95   88   90 ar  
    96   88   98 1   
    97   89   91 ar  
    98   89   99 1   
    99   90   91 ar  
   100   90  100 1   
   101   91   92 1   
   102   92  101 1   
   103  102  103 1   
   104  102  110 1   
   105  103  104 1   
   106  103  106 1   
   107  103  111 1   
   108  104  105 2   
   109  104  121 1   
   110  106  107 1   
   111  106  108 1   
   112  106  112 1   
   113  107  109 1   
   114  107  113 1   
   115  107  114 1   
   116  108  115 1   
   117  108  116 1   
   118  108  117 1   
   119  109  118 1   
   120  109  119 1   
   121  109  120 1   
   122  121  122 1   
   123  121  127 1   
   124  122  123 1   
   125  122  125 1   
   126  122  128 1   
   127  123  124 2   
   128  123  132 1   
   129  125  126 1   
   130  125  129 1   
   131  125  130 1   
   132  126  131 1   
   133  132  133 1   
   134  132  137 1   
   135  133  134 1   
   136  133  136 1   
   137  133  138 1   
   138  134  135 2   
   139  134  142 1   
   140  136  139 1   
   141  136  140 1   
   142  136  141 1   
   143  142  143 1   
   144  142  147 1   
   145  143  144 1   
   146  143  146 1   
   147  143  148 1   
   148  144  145 2   
   149  144  152 1   
   150  146  149 1   
   151  146  150 1   
   152  146  151 1   
   153  152  153 1   
   154  152  161 1   
   155  153  154 1   
   156  153  156 1   
   157  153  162 1   
   158  154  155 2   
   159  154  167 1   
   160  156  157 1   
   161  156  163 1   
   162  156  164 1   
   163  157  158 1   
   164  157  165 1   
   165  157  166 1   
   166  158  159 1   
   167  158  160 1   
   168  167  168 1   
   169  167  172 1   
   170  168  169 1   
   171  168  170 1   
   172  168  171 1   
   173  174  175 1   
   174  174  176 1   
   175  177  178 1   
   176  177  179 1   
   177  180  181 1   
   178  180  182 1   
@<TRIPOS>SUBSTRUCTURE
     1 MOL         1 TEMP              0 ****  ****    0 ROOT
