@<TRIPOS>MOLECULE
MOL
  192   187     1     0     0
SMALL
resp


@<TRIPOS>ATOM
      1 C1         11.6420    5.8150   -2.0220 c3        1 MOL     -0.489251
      2 C2         11.4370    4.5620   -1.2170 c         1 MOL      0.722747
      3 O1         12.3570    3.8340   -0.9530 o         1 MOL     -0.567194
      4 H1         12.3080    5.6030   -2.8580 hc        1 MOL      0.127669
      5 H2         10.6810    6.1630   -2.4030 hc        1 MOL      0.127669
      6 H3         12.0850    6.5850   -1.3910 hc        1 MOL      0.127669
      7 N1         10.1490    4.2270   -0.8530 n         1 MOL     -0.304903
      8 C3          9.8560    3.0960    0.0440 c3        1 MOL     -0.482752
      9 C4          8.5010    2.4610   -0.3660 c         1 MOL      0.567948
     10 O2          7.6030    3.1880   -0.7180 o         1 MOL     -0.598101
     11 C5          9.6900    3.5790    1.4830 c3        1 MOL      0.057354
     12 C6          8.7530    4.7530    1.8450 c         1 MOL      0.757343
     13 O3          8.3120    5.4860    0.9620 o         1 MOL     -0.751306
     14 O4          8.5380    4.8670    3.0790 o         1 MOL     -0.751306
     15 H4          9.3800    4.8740   -1.0210 hn        1 MOL      0.167018
     16 H5         10.6430    2.3440   -0.0300 h1        1 MOL      0.166945
     17 H6         10.6360    4.0300    1.7750 hc        1 MOL      0.058045
     18 H7          9.4880    2.7270    2.1330 hc        1 MOL      0.058045
     19 N2          8.4180    1.2000   -0.2470 n         1 MOL     -0.211396
     20 C7          7.2750    0.3430   -0.4520 c3        1 MOL     -0.161507
     21 C8          6.4710    0.1510    0.8400 c         1 MOL      0.619718
     22 O5          6.9870   -0.0410    1.8740 o         1 MOL     -0.498719
     23 C9          7.8390   -0.9560   -1.0040 c3        1 MOL     -0.198334
     24 C10         6.8600   -1.9850   -1.6780 c3        1 MOL     -0.015041
     25 C11         7.5730   -3.0700   -2.5340 c3        1 MOL     -0.072860
     26 C12         6.5780   -3.9980   -3.1710 c3        1 MOL      0.087466
     27 N3          7.3580   -5.0950   -3.8890 n4        1 MOL     -0.264030
     28 H8          9.2570    0.7600    0.0980 hn        1 MOL      0.252157
     29 H9          6.6430    0.8870   -1.1620 h1        1 MOL      0.065871
     30 H10         8.4200   -1.5250   -0.2760 hc        1 MOL      0.092057
     31 H11         8.5890   -0.7190   -1.7650 hc        1 MOL      0.092057
     32 H12         6.1290   -1.4200   -2.2530 hc        1 MOL      0.072953
     33 H13         6.2980   -2.4120   -0.8510 hc        1 MOL      0.072953
     34 H14         8.2340   -3.5590   -1.8220 hc        1 MOL      0.044506
     35 H15         8.1370   -2.6600   -3.3780 hc        1 MOL      0.044506
     36 H16         5.8640   -3.5350   -3.8400 hx        1 MOL      0.066546
     37 H17         6.0280   -4.5200   -2.3930 hx        1 MOL      0.066546
     38 H18         8.0720   -4.7340   -4.4990 hn        1 MOL      0.239918
     39 H19         7.9660   -5.5280   -3.2000 hn        1 MOL      0.239918
     40 H20         6.8470   -5.6840   -4.5320 hn        1 MOL      0.239918
     41 N4          5.1290    0.2410    0.6950 n         1 MOL     -0.473587
     42 C13         4.1190    0.1250    1.7670 c3        1 MOL     -0.055852
     43 C14         2.7060    0.0180    1.2220 c         1 MOL      0.520401
     44 O6          2.3650    0.4460    0.1070 o         1 MOL     -0.517237
     45 C15         4.1220    1.4590    2.5810 c3        1 MOL      0.051454
     46 C16         4.4770    2.7330    1.8320 c         1 MOL      0.497428
     47 O7          3.7900    3.2590    0.9100 o         1 MOL     -0.657497
     48 O8          5.5870    3.3000    2.1490 o         1 MOL     -0.657497
     49 H21         4.7450    0.5070   -0.2020 hn        1 MOL      0.246325
     50 H22         4.3710   -0.7850    2.3020 h1        1 MOL      0.132621
     51 H23         4.8850    1.3710    3.3600 hc        1 MOL      0.037391
     52 H24         3.2140    1.5860    3.1730 hc        1 MOL      0.037391
     53 N5          1.8350   -0.7210    1.9620 n         1 MOL     -0.491639
     54 C17         2.1290   -1.6030    3.0650 c3        1 MOL      0.016876
     55 C18         2.4400   -3.0540    2.6740 c         1 MOL      0.455030
     56 O9          2.7900   -3.4220    1.5630 o         1 MOL     -0.482222
     57 H25         1.0810   -1.0890    1.3900 hn        1 MOL      0.350544
     58 H26         1.2290   -1.6290    3.6790 h1        1 MOL      0.068594
     59 H27         2.8510   -1.0750    3.6920 h1        1 MOL      0.068594
     60 N6          2.3850   -4.0220    3.6070 n         1 MOL     -0.393090
     61 C19         2.8690   -5.4110    3.3500 c3        1 MOL      0.144099
     62 C20         2.0820   -6.1510    2.3160 c         1 MOL      0.410631
     63 O10         2.6370   -7.0930    1.7440 o         1 MOL     -0.557383
     64 C21         2.9090   -6.2170    4.6750 c3        1 MOL     -0.472733
     65 C22         1.6840   -6.0580    5.5680 c         1 MOL      0.767372
     66 O11         1.6000   -5.3940    6.6170 o         1 MOL     -0.654436
     67 O12         0.6070   -6.5710    5.1700 o         1 MOL     -0.654436
     68 H28         1.9450   -3.8250    4.4990 hn        1 MOL      0.250891
     69 H29         3.8810   -5.3920    2.9680 h1        1 MOL      0.073102
     70 H30         3.8080   -5.9310    5.2330 hc        1 MOL      0.130682
     71 H31         3.0410   -7.2580    4.3700 hc        1 MOL      0.130682
     72 N7          0.8360   -5.8380    2.0810 n         1 MOL     -0.136402
     73 C23         0.1180   -6.4370    0.9410 c3        1 MOL     -0.109659
     74 C24         0.3120   -5.6710   -0.4290 c         1 MOL      0.550844
     75 O13        -0.4060   -5.9520   -1.3590 o         1 MOL     -0.571011
     76 H32         0.4440   -5.0740    2.6090 hn        1 MOL      0.226076
     77 H33        -0.9250   -6.1870    1.1290 h1        1 MOL      0.084673
     78 H34         0.4150   -7.4760    0.8650 h1        1 MOL      0.084673
     79 N8          1.1650   -4.7010   -0.4600 n         1 MOL     -0.318932
     80 C25         1.3320   -3.8600   -1.6650 c3        1 MOL      0.295082
     81 C26         0.7760   -2.4880   -1.4530 c         1 MOL      0.327600
     82 O14         0.5790   -2.0330   -0.3350 o         1 MOL     -0.493104
     83 C27         2.7280   -3.8210   -2.2100 c3        1 MOL      0.338877
     84 C28         3.3430   -5.2320   -2.0530 c3        1 MOL     -0.344055
     85 O15         2.5900   -3.5150   -3.6120 oh        1 MOL     -0.659531
     86 H35         1.7400   -4.5570    0.3630 hn        1 MOL      0.112647
     87 H36         0.6430   -4.2590   -2.4010 h1        1 MOL     -0.023217
     88 H37         3.3870   -3.1690   -1.6280 h1        1 MOL     -0.014443
     89 H38         2.4200   -4.3460   -4.0700 ho        1 MOL      0.404307
     90 H39         2.5720   -5.8550   -2.5090 hc        1 MOL      0.087192
     91 H40         4.2540   -5.3930   -2.6220 hc        1 MOL      0.087192
     92 H41         3.6380   -5.5540   -1.0520 hc        1 MOL      0.087192
     93 N9          0.4820   -1.8020   -2.5380 n         1 MOL     -0.133044
     94 C29        -0.1200   -0.4540   -2.7220 c3        1 MOL     -0.084053
     95 C30        -1.3680   -0.3150   -1.8240 c         1 MOL      0.422078
     96 O16        -1.5090    0.6830   -1.1320 o         1 MOL     -0.482394
     97 C31        -0.4500   -0.1410   -4.1870 c3        1 MOL      0.040475
     98 C32         0.8600    0.0880   -4.9640 c3        1 MOL      0.218258
     99 C33        -1.3890    1.0590   -4.4520 c3        1 MOL     -0.192110
    100 C34         1.6860    1.4090   -4.7530 c3        1 MOL     -0.247514
    101 H42         0.9690   -2.1720   -3.3480 hn        1 MOL      0.123817
    102 H43         0.5480    0.2930   -2.3060 h1        1 MOL      0.117351
    103 H44        -0.7690   -1.0380   -4.7080 hc        1 MOL      0.013961
    104 H45         0.7090   -0.0780   -6.0310 hc        1 MOL     -0.047022
    105 H46         1.6520   -0.6530   -4.8160 hc        1 MOL     -0.047022
    106 H47        -1.0730    1.9620   -3.9430 hc        1 MOL      0.065604
    107 H48        -1.5240    1.2360   -5.5190 hc        1 MOL      0.065604
    108 H49        -2.3980    0.8260   -4.1260 hc        1 MOL      0.065604
    109 H50         2.5500    1.4300   -5.4080 hc        1 MOL      0.052527
    110 H51         1.1350    2.3200   -4.9840 hc        1 MOL      0.052527
    111 H52         2.0820    1.2610   -3.7460 hc        1 MOL      0.052527
    112 N10        -2.2320   -1.3320   -1.7470 n         1 MOL     -0.300886
    113 C35        -3.3840   -1.4010   -0.8890 c3        1 MOL     -0.154918
    114 C36        -4.5850   -2.0470   -1.4940 c         1 MOL      0.755393
    115 O17        -4.4850   -2.9180   -2.3560 o         1 MOL     -0.578675
    116 C37        -3.1240   -2.1070    0.5040 c3        1 MOL      0.378257
    117 C38        -2.8110   -3.5790    0.2800 c3        1 MOL     -0.518068
    118 O18        -2.0330   -1.4310    1.2110 oh        1 MOL     -0.630321
    119 H53        -1.9800   -2.1700   -2.2480 hn        1 MOL      0.170824
    120 H54        -3.6640   -0.3700   -0.6680 h1        1 MOL      0.105369
    121 H55        -4.0080   -1.9310    1.1140 h1        1 MOL      0.071309
    122 H56        -1.2710   -1.4030    0.6290 ho        1 MOL      0.401524
    123 H57        -2.3290   -3.9650    1.1720 hc        1 MOL      0.133540
    124 H58        -3.7720   -3.9960   -0.0070 hc        1 MOL      0.133540
    125 H59        -2.1880   -3.8590   -0.5740 hc        1 MOL      0.133540
    126 N11        -5.7830   -1.6570   -1.1950 n         1 MOL     -0.641582
    127 C39        -7.1100   -2.1910   -1.8720 c3        1 MOL      0.003354
    128 C40        -8.2290   -1.1850   -1.8080 c         1 MOL      0.660890
    129 O19        -9.0100   -1.0720   -2.7720 o         1 MOL     -0.580672
    130 C41        -7.4540   -3.5330   -1.2160 c3        1 MOL      0.300639
    131 C42        -8.8410   -4.1020   -1.6510 c3        1 MOL     -0.524724
    132 O20        -7.3980   -3.5050    0.2160 oh        1 MOL     -0.665887
    133 H60        -5.8860   -1.0640   -0.3850 hn        1 MOL      0.284837
    134 H61        -6.9360   -2.4570   -2.9170 h1        1 MOL      0.122788
    135 H62        -6.6370   -4.2090   -1.4810 h1        1 MOL      0.061910
    136 H63        -7.6180   -4.3510    0.6300 ho        1 MOL      0.425382
    137 H64        -9.6180   -3.4620   -1.2280 hc        1 MOL      0.143706
    138 H65        -8.8500   -4.0980   -2.7480 hc        1 MOL      0.143706
    139 H66        -9.0340   -5.0850   -1.2290 hc        1 MOL      0.143706
    140 N12        -8.1600   -0.3140   -0.8310 n         1 MOL     -0.464807
    141 C43        -9.2070    0.8160   -0.6140 c3        1 MOL      0.022635
    142 C44        -8.6430    1.8920    0.2900 c         1 MOL      0.634299
    143 O21        -7.8600    1.5530    1.1690 o         1 MOL     -0.517846
    144 C45       -10.3390    0.1600    0.1420 c3        1 MOL     -0.111525
    145 C46       -11.4860   -0.1580   -0.7490 c3        1 MOL     -0.030179
    146 C47       -12.5660   -0.9930    0.0430 c3        1 MOL     -0.027485
    147 C48       -13.2710   -0.3600    1.1960 c3        1 MOL     -0.045357
    148 N13       -14.2020    0.7200    0.7890 n4        1 MOL     -0.250471
    149 H67        -7.5980   -0.5300   -0.0250 hn        1 MOL      0.310078
    150 H68        -9.5340    1.3100   -1.5310 h1        1 MOL      0.094961
    151 H69       -10.7160    0.9410    0.7960 hc        1 MOL      0.058873
    152 H70        -9.9810   -0.6640    0.7620 hc        1 MOL      0.058873
    153 H71       -11.0820   -0.7880   -1.5400 hc        1 MOL      0.022080
    154 H72       -12.0410    0.6590   -1.1950 hc        1 MOL      0.022080
    155 H73       -12.1440   -1.9580    0.3250 hc        1 MOL      0.054963
    156 H74       -13.3670   -1.2450   -0.6470 hc        1 MOL      0.054963
    157 H75       -12.5770    0.2000    1.8220 hx        1 MOL      0.102121
    158 H76       -13.7630   -1.1000    1.8280 hx        1 MOL      0.102121
    159 H77       -13.9110    1.2980    0.0140 hn        1 MOL      0.279242
    160 H78       -15.1280    0.3560    0.6400 hn        1 MOL      0.279242
    161 H79       -14.3220    1.4180    1.5090 hn        1 MOL      0.279242
    162 N14        -9.0210    3.1550    0.1390 n         1 MOL     -0.769607
    163 C49        -8.5480    4.2740    1.0410 c3        1 MOL      0.575869
    164 C50        -6.9860    4.3460    1.1370 c         1 MOL      0.255824
    165 O22        -6.4170    4.2580    2.2470 o         1 MOL     -0.516899
    166 C51        -9.2890    5.5620    0.7870 c3        1 MOL     -0.330025
    167 C52       -10.7390    5.6350    1.2880 c3        1 MOL      0.060779
    168 C53       -11.2670    7.0660    1.4310 c         1 MOL      0.691320
    169 O23       -11.6330    7.3370    2.5970 o         1 MOL     -0.683204
    170 O24       -11.5560    7.6260    0.3820 o         1 MOL     -0.683204
    171 H80        -9.7570    3.3930   -0.5020 hn        1 MOL      0.354729
    172 H81        -8.7700    3.9990    2.0730 h1        1 MOL     -0.007457
    173 H82        -9.3360    5.7030   -0.2900 hc        1 MOL      0.073309
    174 H83        -8.7600    6.3870    1.2630 hc        1 MOL      0.073309
    175 H84       -10.6900    5.1160    2.2470 hc        1 MOL     -0.065461
    176 H85       -11.3860    5.1030    0.5980 hc        1 MOL     -0.065461
    177 N15        -6.2610    4.5990    0.0830 n         1 MOL     -0.250172
    178 C54        -6.6310    4.8880   -1.3340 c3        1 MOL     -0.100302
    179 H86        -6.5310    3.9800   -1.9280 h1        1 MOL      0.064068
    180 H87        -7.6630    5.2380   -1.3760 h1        1 MOL      0.064068
    181 H88        -5.9700    5.6570   -1.7320 h1        1 MOL      0.064068
    182 H89        -5.2920    4.6560    0.3560 hn        1 MOL      0.277976
    183 Ca1         5.7800    4.9840    0.0370 Ca        1 MOL      1.788671
    184 O25         5.1420    3.2870   -1.8340 oh        1 MOL     -0.895244
    185 H90         4.8280    2.3860   -1.7270 ho        1 MOL      0.440406
    186 H91         5.6230    3.2780   -2.6550 ho        1 MOL      0.440406
    187 O26         5.6500    6.2120    2.3200 oh        1 MOL     -0.895244
    188 H92         6.5030    6.0400    2.7170 ho        1 MOL      0.440406
    189 H93         5.1730    6.7080    2.9860 ho        1 MOL      0.440406
    190 O27         3.3000    6.1660   -0.1020 oh        1 MOL     -0.895244
    191 H94         2.8710    6.6130    0.6320 ho        1 MOL      0.440406
    192 H95         2.6250    5.5740   -0.4490 ho        1 MOL      0.440406
@<TRIPOS>BOND
     1    1    2 1   
     2    1    4 1   
     3    1    5 1   
     4    1    6 1   
     5    2    3 2   
     6    2    7 1   
     7    7    8 1   
     8    7   15 1   
     9    8    9 1   
    10    8   11 1   
    11    8   16 1   
    12    9   10 2   
    13    9   19 1   
    14   11   12 1   
    15   11   17 1   
    16   11   18 1   
    17   12   13 1   
    18   12   14 1   
    19   19   20 1   
    20   19   28 1   
    21   20   21 1   
    22   20   23 1   
    23   20   29 1   
    24   21   22 2   
    25   21   41 1   
    26   23   24 1   
    27   23   30 1   
    28   23   31 1   
    29   24   25 1   
    30   24   32 1   
    31   24   33 1   
    32   25   26 1   
    33   25   34 1   
    34   25   35 1   
    35   26   27 1   
    36   26   36 1   
    37   26   37 1   
    38   27   38 1   
    39   27   39 1   
    40   27   40 1   
    41   41   42 1   
    42   41   49 1   
    43   42   43 1   
    44   42   45 1   
    45   42   50 1   
    46   43   44 2   
    47   43   53 1   
    48   45   46 1   
    49   45   51 1   
    50   45   52 1   
    51   46   47 1   
    52   46   48 1   
    53   53   54 1   
    54   53   57 1   
    55   54   55 1   
    56   54   58 1   
    57   54   59 1   
    58   55   56 2   
    59   55   60 1   
    60   60   61 1   
    61   60   68 1   
    62   61   62 1   
    63   61   64 1   
    64   61   69 1   
    65   62   63 2   
    66   62   72 1   
    67   64   65 1   
    68   64   70 1   
    69   64   71 1   
    70   65   66 1   
    71   65   67 1   
    72   72   73 1   
    73   72   76 1   
    74   73   74 1   
    75   73   77 1   
    76   73   78 1   
    77   74   75 2   
    78   74   79 1   
    79   79   80 1   
    80   79   86 1   
    81   80   81 1   
    82   80   83 1   
    83   80   87 1   
    84   81   82 2   
    85   81   93 1   
    86   83   84 1   
    87   83   85 1   
    88   83   88 1   
    89   84   90 1   
    90   84   91 1   
    91   84   92 1   
    92   85   89 1   
    93   93   94 1   
    94   93  101 1   
    95   94   95 1   
    96   94   97 1   
    97   94  102 1   
    98   95   96 2   
    99   95  112 1   
   100   97   98 1   
   101   97   99 1   
   102   97  103 1   
   103   98  100 1   
   104   98  104 1   
   105   98  105 1   
   106   99  106 1   
   107   99  107 1   
   108   99  108 1   
   109  100  109 1   
   110  100  110 1   
   111  100  111 1   
   112  112  113 1   
   113  112  119 1   
   114  113  114 1   
   115  113  116 1   
   116  113  120 1   
   117  114  115 2   
   118  114  126 1   
   119  116  117 1   
   120  116  118 1   
   121  116  121 1   
   122  117  123 1   
   123  117  124 1   
   124  117  125 1   
   125  118  122 1   
   126  126  127 1   
   127  126  133 1   
   128  127  128 1   
   129  127  130 1   
   130  127  134 1   
   131  128  129 2   
   132  128  140 1   
   133  130  131 1   
   134  130  132 1   
   135  130  135 1   
   136  131  137 1   
   137  131  138 1   
   138  131  139 1   
   139  132  136 1   
   140  140  141 1   
   141  140  149 1   
   142  141  142 1   
   143  141  144 1   
   144  141  150 1   
   145  142  143 2   
   146  142  162 1   
   147  144  145 1   
   148  144  151 1   
   149  144  152 1   
   150  145  146 1   
   151  145  153 1   
   152  145  154 1   
   153  146  147 1   
   154  146  155 1   
   155  146  156 1   
   156  147  148 1   
   157  147  157 1   
   158  147  158 1   
   159  148  159 1   
   160  148  160 1   
   161  148  161 1   
   162  162  163 1   
   163  162  171 1   
   164  163  164 1   
   165  163  166 1   
   166  163  172 1   
   167  164  165 2   
   168  164  177 1   
   169  166  167 1   
   170  166  173 1   
   171  166  174 1   
   172  167  168 1   
   173  167  175 1   
   174  167  176 1   
   175  168  169 1   
   176  168  170 1   
   177  177  178 1   
   178  177  182 1   
   179  178  179 1   
   180  178  180 1   
   181  178  181 1   
   182  184  185 1   
   183  184  186 1   
   184  187  188 1   
   185  187  189 1   
   186  190  191 1   
   187  190  192 1   
@<TRIPOS>SUBSTRUCTURE
     1 MOL         1 TEMP              0 ****  ****    0 ROOT
