@<TRIPOS>MOLECULE
MOL
  195   189     1     0     0
SMALL
resp


@<TRIPOS>ATOM
      1 C1         -0.0860    4.6280   -1.5780 c3        1 MOL     -0.419069
      2 C2          1.3940    4.4580   -1.0700 c         1 MOL      0.769317
      3 O1          2.0960    3.4920   -1.3930 o         1 MOL     -0.580499
      4 H1         -0.7150    3.8630   -1.1230 hc        1 MOL      0.095542
      5 H2         -0.4550    5.6150   -1.3000 hc        1 MOL      0.095542
      6 H3         -0.1130    4.5210   -2.6620 hc        1 MOL      0.095542
      7 N1          1.8090    5.2620   -0.0530 n         1 MOL     -0.691875
      8 C3          2.9920    5.2540    0.8210 c3        1 MOL      0.045991
      9 C4          4.3340    5.7020    0.1870 c         1 MOL      0.483652
     10 O2          5.1420    6.4360    0.7950 o         1 MOL     -0.538975
     11 C5          3.0780    3.8200    1.4340 c3        1 MOL     -0.117111
     12 C6          1.7370    3.2290    1.8870 c         1 MOL      0.593058
     13 O3          0.8130    3.9180    2.4630 o         1 MOL     -0.581401
     14 O4          1.5900    1.9940    1.6100 o         1 MOL     -0.581401
     15 H4          1.1490    5.9770    0.2420 hn        1 MOL      0.351168
     16 H5          2.7380    5.7770    1.7370 h1        1 MOL      0.057463
     17 H6          3.7010    3.9220    2.3110 hc        1 MOL      0.080111
     18 H7          3.5690    3.1270    0.7540 hc        1 MOL      0.080111
     19 N2          4.5560    5.2350   -1.0450 n         1 MOL     -0.377444
     20 C7          5.8910    5.1950   -1.7860 c3        1 MOL     -0.162348
     21 C8          7.1620    5.2260   -0.8890 c         1 MOL      0.530583
     22 O5          8.0070    6.1040   -0.9580 o         1 MOL     -0.539901
     23 C9          5.8800    6.2580   -2.8620 c3        1 MOL      0.137219
     24 C10         5.6640    7.7190   -2.3740 c3        1 MOL      0.307646
     25 C11         4.7970    6.0350   -3.9420 c3        1 MOL     -0.041522
     26 C12         5.8370    8.8630   -3.4270 c3        1 MOL      0.152172
     27 H8          3.8440    4.5830   -1.3350 hn        1 MOL      0.335665
     28 H9          5.9230    4.2200   -2.2710 h1        1 MOL      0.157359
     29 H10         6.8440    6.2610   -3.3600 hc        1 MOL      0.001593
     30 H11         6.5000    7.9830   -1.7270 hc        1 MOL     -0.100353
     31 H12         4.7060    7.8360   -1.8770 hc        1 MOL     -0.100353
     32 H13         5.1620    5.2330   -4.5700 hc        1 MOL     -0.031343
     33 H14         3.8590    5.6820   -3.4980 hc        1 MOL     -0.031343
     34 H15         4.6970    6.9200   -4.5760 hc        1 MOL     -0.031343
     35 H16         6.6970    8.7260   -4.0700 hc        1 MOL     -0.079207
     36 H17         4.8990    8.8340   -3.9840 hc        1 MOL     -0.079207
     37 H18         5.8190    9.8510   -2.9570 hc        1 MOL     -0.079207
     38 N3          7.4060    4.2000   -0.0610 n         1 MOL     -0.525122
     39 C13         6.6830    2.9750    0.2600 c3        1 MOL      0.490901
     40 C14         6.7340    2.6980    1.7820 c         1 MOL      0.311176
     41 O6          7.7880    2.9400    2.4710 o         1 MOL     -0.496715
     42 C15         7.1170    1.8270   -0.6170 c3        1 MOL     -0.169492
     43 C16         8.6150    1.5820   -0.7290 c         1 MOL      0.673703
     44 O7          9.1620    0.8400    0.0710 o         1 MOL     -0.718484
     45 O8          9.2130    2.2600   -1.6040 o         1 MOL     -0.718484
     46 H19         8.2490    4.3520    0.4760 hn        1 MOL      0.311036
     47 H20         5.6210    3.1890    0.1270 h1        1 MOL     -0.207599
     48 H21         6.6720    1.9590   -1.5950 hc        1 MOL     -0.004388
     49 H22         6.7360    0.9170   -0.1570 hc        1 MOL     -0.004388
     50 N4          5.7020    2.1550    2.3630 n         1 MOL     -0.077040
     51 C17         5.6720    1.8130    3.7860 c3        1 MOL     -0.278420
     52 C18         6.3220    0.3900    3.9740 c         1 MOL      0.531644
     53 O9          7.4580    0.1520    4.3240 o         1 MOL     -0.502950
     54 H23         4.8540    2.0070    1.8370 hn        1 MOL      0.202386
     55 H24         4.5990    1.7810    3.9830 h1        1 MOL      0.104684
     56 H25         6.2090    2.6020    4.3170 h1        1 MOL      0.104684
     57 N5          5.5030   -0.6440    3.7800 n         1 MOL     -0.366861
     58 C19         5.7690   -2.0360    3.7410 c3        1 MOL      0.023454
     59 C20         6.4300   -2.5260    2.4650 c         1 MOL      0.502848
     60 O10         7.1100   -3.5190    2.4670 o         1 MOL     -0.583382
     61 C21         4.4190   -2.9080    3.8240 c3        1 MOL     -0.267115
     62 C22         3.3780   -2.2500    2.9390 c         1 MOL      0.660859
     63 O11         2.7210   -1.2980    3.3820 o         1 MOL     -0.564588
     64 O12         3.2140   -2.4810    1.7670 o         1 MOL     -0.564588
     65 H26         4.5290   -0.4310    3.6290 hn        1 MOL      0.222473
     66 H27         6.4210   -2.2920    4.5830 h1        1 MOL      0.073324
     67 H28         3.9940   -2.9630    4.8250 hc        1 MOL      0.058133
     68 H29         4.6090   -3.9400    3.5390 hc        1 MOL      0.058133
     69 N6          6.1450   -1.8560    1.3310 n         1 MOL     -0.074480
     70 C23         6.5120   -2.2590   -0.0340 c3        1 MOL     -0.328805
     71 C24         5.8470   -3.5460   -0.6210 c         1 MOL      0.549958
     72 O13         6.3610   -3.9890   -1.6350 o         1 MOL     -0.564984
     73 H30         5.6270   -0.9910    1.4520 hn        1 MOL      0.154447
     74 H31         7.6020   -2.3130    0.0580 h1        1 MOL      0.148804
     75 H32         6.3140   -1.3640   -0.6240 h1        1 MOL      0.148804
     76 N7          4.7460   -3.9860   -0.0270 n         1 MOL     -0.222906
     77 C25         3.9140   -5.0910   -0.4180 c3        1 MOL      0.094136
     78 C26         3.5340   -5.1830   -1.8850 c         1 MOL      0.330170
     79 O14         3.3680   -6.3060   -2.4300 o         1 MOL     -0.535913
     80 C27         4.3730   -6.4520    0.1850 c3        1 MOL      0.102249
     81 C28         4.8920   -6.4430    1.6350 c3        1 MOL     -0.305813
     82 C29         5.0430   -7.9000    2.1620 c         1 MOL      0.677788
     83 N8          5.9150   -8.1700    3.1090 n         1 MOL     -0.783094
     84 O15         4.3830   -8.8520    1.6400 o         1 MOL     -0.576244
     85 H33         4.4890   -3.4540    0.7950 hn        1 MOL      0.164762
     86 H34         2.9580   -4.7410   -0.0150 h1        1 MOL      0.034093
     87 H35         5.0520   -6.9570   -0.4950 hc        1 MOL      0.010900
     88 H36         3.4860   -7.1050    0.1860 hc        1 MOL      0.010900
     89 H37         4.2120   -5.7900    2.1790 hc        1 MOL      0.088443
     90 H38         5.8760   -5.9790    1.5990 hc        1 MOL      0.088443
     91 H39         6.5210   -7.4450    3.4580 hn        1 MOL      0.349597
     92 H40         6.1050   -9.1010    3.4590 hn        1 MOL      0.349597
     93 N9          3.2640   -4.0580   -2.5330 n         1 MOL     -0.139823
     94 C30         2.8550   -3.8780   -3.9350 c3        1 MOL     -0.182897
     95 C31         1.3880   -3.5030   -4.1810 c         1 MOL      0.602559
     96 O16         0.8320   -3.7580   -5.2400 o         1 MOL     -0.598200
     97 C32         3.6900   -2.7890   -4.6120 c3        1 MOL      0.308334
     98 C33         3.9800   -1.5480   -3.7920 c3        1 MOL     -0.258033
     99 C34         4.9230   -3.5150   -5.1660 c3        1 MOL     -0.258033
    100 H41         3.3850   -3.2930   -1.8920 hn        1 MOL      0.179392
    101 H42         3.0480   -4.8470   -4.3790 h1        1 MOL      0.117641
    102 H43         3.1290   -2.4940   -5.4960 hc        1 MOL     -0.046654
    103 H44         4.6850   -1.7110   -2.9770 hc        1 MOL      0.057753
    104 H45         4.3690   -0.7760   -4.4570 hc        1 MOL      0.057753
    105 H46         3.0100   -1.1530   -3.4990 hc        1 MOL      0.057753
    106 H47         5.4920   -2.7880   -5.7560 hc        1 MOL      0.057753
    107 H48         5.6070   -3.9020   -4.4000 hc        1 MOL      0.057753
    108 H49         4.6490   -4.3130   -5.8510 hc        1 MOL      0.057753
    109 N10         0.7680   -2.9600   -3.1510 n         1 MOL     -0.366928
    110 C35        -0.6920   -2.6890   -3.1780 c3        1 MOL      0.067960
    111 C36        -1.3240   -2.9640   -1.8020 c         1 MOL      0.418057
    112 O17        -0.6790   -3.2830   -0.8100 o         1 MOL     -0.478383
    113 C37        -0.9530   -1.2110   -3.5730 c3        1 MOL     -0.089254
    114 C38        -0.4160   -0.1230   -2.6580 c         1 MOL      0.533946
    115 N11        -0.5940    1.1520   -3.0730 n         1 MOL     -0.729659
    116 O18         0.1720   -0.3070   -1.5610 o         1 MOL     -0.408559
    117 H50         1.2510   -2.7570   -2.2890 hn        1 MOL      0.221182
    118 H51        -1.2510   -3.2620   -3.9110 h1        1 MOL      0.090381
    119 H52        -2.0090   -0.9920   -3.7280 hc        1 MOL      0.031132
    120 H53        -0.5230   -1.0660   -4.5640 hc        1 MOL      0.031132
    121 H54        -0.8930    1.2930   -4.0260 hn        1 MOL      0.325416
    122 H55        -0.2580    1.8460   -2.4200 hn        1 MOL      0.325416
    123 N12        -2.5740   -2.6490   -1.6050 n         1 MOL     -0.353969
    124 C39        -3.3340   -2.7340   -0.3530 c3        1 MOL      0.077243
    125 C40        -4.8630   -2.7110   -0.6650 c         1 MOL      0.461890
    126 O19        -5.2590   -2.1780   -1.7300 o         1 MOL     -0.568254
    127 C41        -2.8640   -1.6000    0.6380 c3        1 MOL     -0.428116
    128 C42        -3.2950   -1.7500    2.0830 ca        1 MOL      0.093729
    129 C43        -2.6300   -2.6960    2.8940 ca        1 MOL     -0.120269
    130 C44        -4.3470   -1.0360    2.6290 ca        1 MOL     -0.120269
    131 C45        -3.1070   -2.9120    4.2070 ca        1 MOL     -0.271177
    132 C46        -4.8470   -1.3600    3.9800 ca        1 MOL     -0.271177
    133 C47        -4.2870   -2.3340    4.7740 ca        1 MOL      0.327198
    134 O20        -4.7360   -2.6670    6.0130 oh        1 MOL     -0.495139
    135 H56        -3.0580   -2.3020   -2.4200 hn        1 MOL      0.228873
    136 H57        -3.0520   -3.6800    0.1130 h1        1 MOL      0.080071
    137 H58        -3.0890   -0.5790    0.3220 hc        1 MOL      0.209789
    138 H59        -1.7810   -1.6040    0.6690 hc        1 MOL      0.209789
    139 H60        -1.7850   -3.2530    2.5370 ha        1 MOL      0.151284
    140 H61        -4.9840   -0.3250    2.1340 ha        1 MOL      0.151284
    141 H62        -2.7350   -3.7480    4.7920 ha        1 MOL      0.139715
    142 H63        -5.7230   -0.7970    4.2740 ha        1 MOL      0.139715
    143 H64        -4.1200   -3.1550    6.5700 ho        1 MOL      0.361010
    144 N13        -5.7600   -3.1730    0.2080 n         1 MOL     -0.374315
    145 C48        -7.2270   -3.1030    0.0330 c3        1 MOL      0.412117
    146 C49        -7.8970   -2.0710    1.0000 c         1 MOL      0.418158
    147 O21        -7.9070   -2.2830    2.1740 o         1 MOL     -0.524625
    148 C50        -7.8330   -4.4860    0.2910 c3        1 MOL      0.250016
    149 C51        -7.2910   -5.4840   -0.7900 c3        1 MOL     -0.168366
    150 C52        -8.2640   -6.6400   -1.0280 c         1 MOL      0.720460
    151 O22        -8.6230   -6.9080   -2.1860 o         1 MOL     -0.658918
    152 O23        -8.5520   -7.3560   -0.0580 o         1 MOL     -0.658918
    153 H65        -5.3800   -3.4910    1.0900 hn        1 MOL      0.222621
    154 H66        -7.5190   -2.7680   -0.9640 h1        1 MOL     -0.068905
    155 H67        -8.9110   -4.4190    0.1740 hc        1 MOL     -0.086650
    156 H68        -7.6460   -4.7740    1.3240 hc        1 MOL     -0.086650
    157 H69        -6.2890   -5.8270   -0.5220 hc        1 MOL     -0.001320
    158 H70        -7.2220   -4.9470   -1.7280 hc        1 MOL     -0.001320
    159 N14        -8.3570   -0.9240    0.4590 n         1 MOL     -0.383689
    160 C53        -7.9070   -0.2870   -0.7780 c3        1 MOL     -0.260771
    161 C54        -8.7480   -0.7380   -2.0370 c         1 MOL      0.782512
    162 O24        -9.9340   -1.1120   -1.9310 o         1 MOL     -0.563543
    163 C55        -7.9450    1.1980   -0.5720 c3        1 MOL      0.281605
    164 C56        -9.3020    1.6320   -0.1150 c3        1 MOL     -0.771757
    165 C57        -9.2090    3.1690    0.1090 c         1 MOL      0.794238
    166 O25        -8.8300    3.6730    1.1890 o         1 MOL     -0.685430
    167 O26        -9.2750    3.9810   -0.8650 o         1 MOL     -0.685430
    168 H71        -8.7580   -0.2780    1.1300 hn        1 MOL      0.263466
    169 H72        -6.8580   -0.5900   -0.8850 h1        1 MOL      0.022613
    170 H73        -7.7740    1.7420   -1.5030 hc        1 MOL      0.031071
    171 H74        -7.2130    1.4860    0.1840 hc        1 MOL      0.031071
    172 H75        -9.6240    1.2480    0.8470 hc        1 MOL      0.201507
    173 H76       -10.0740    1.3580   -0.8370 hc        1 MOL      0.201507
    174 N15        -7.9310   -0.6000   -3.1390 n         1 MOL     -0.367463
    175 C58        -8.2150   -0.6900   -4.5750 c3        1 MOL     -0.596060
    176 H77        -8.5410    0.2830   -4.9430 h1        1 MOL      0.198380
    177 H78        -7.3140   -0.9950   -5.1070 h1        1 MOL      0.198380
    178 H79        -9.0030   -1.4250   -4.7450 h1        1 MOL      0.198380
    179 H80        -7.0460   -0.1620   -2.9410 hn        1 MOL      0.322829
    180 Ca1        -7.8070    5.8940    0.8330 Ca        1 MOL      1.164100
    181 O27        -6.2050    4.5700    2.6100 oh        1 MOL     -0.593144
    182 H81        -6.4060    4.2600    3.4900 ho        1 MOL      0.275245
    183 H82        -5.2530    4.5150    2.5490 ho        1 MOL      0.275245
    184 O28       -10.2020    6.8290    0.4230 oh        1 MOL     -0.593144
    185 H83       -10.6680    7.2250   -0.3130 ho        1 MOL      0.275245
    186 H84       -10.6140    7.2160    1.2010 ho        1 MOL      0.275245
    187 O29        -5.8600    3.6700   -0.5060 oh        1 MOL     -0.593144
    188 H85        -5.8400    3.9170   -1.4300 ho        1 MOL      0.275245
    189 H86        -4.9960    3.2760   -0.3500 ho        1 MOL      0.275245
    190 O30        -8.5300    6.4720    3.4420 oh        1 MOL     -0.593144
    191 H87        -9.1950    7.1300    3.6430 ho        1 MOL      0.275245
    192 H88        -7.7890    6.7020    4.0050 ho        1 MOL      0.275245
    193 O31        -7.8260    8.4970    1.4430 oh        1 MOL     -0.593144
    194 H89        -6.9160    8.7690    1.6000 ho        1 MOL      0.275245
    195 H90        -8.0800    8.9600    0.6570 ho        1 MOL      0.275245
@<TRIPOS>BOND
     1    1    2 1   
     2    1    4 1   
     3    1    5 1   
     4    1    6 1   
     5    2    3 2   
     6    2    7 1   
     7    7    8 1   
     8    7   15 1   
     9    8    9 1   
    10    8   11 1   
    11    8   16 1   
    12    9   10 2   
    13    9   19 1   
    14   11   12 1   
    15   11   17 1   
    16   11   18 1   
    17   12   13 1   
    18   12   14 1   
    19   19   20 1   
    20   19   27 1   
    21   20   21 1   
    22   20   23 1   
    23   20   28 1   
    24   21   22 2   
    25   21   38 1   
    26   23   24 1   
    27   23   25 1   
    28   23   29 1   
    29   24   26 1   
    30   24   30 1   
    31   24   31 1   
    32   25   32 1   
    33   25   33 1   
    34   25   34 1   
    35   26   35 1   
    36   26   36 1   
    37   26   37 1   
    38   38   39 1   
    39   38   46 1   
    40   39   40 1   
    41   39   42 1   
    42   39   47 1   
    43   40   41 2   
    44   40   50 1   
    45   42   43 1   
    46   42   48 1   
    47   42   49 1   
    48   43   44 1   
    49   43   45 1   
    50   50   51 1   
    51   50   54 1   
    52   51   52 1   
    53   51   55 1   
    54   51   56 1   
    55   52   53 2   
    56   52   57 1   
    57   57   58 1   
    58   57   65 1   
    59   58   59 1   
    60   58   61 1   
    61   58   66 1   
    62   59   60 2   
    63   59   69 1   
    64   61   62 1   
    65   61   67 1   
    66   61   68 1   
    67   62   63 1   
    68   62   64 1   
    69   69   70 1   
    70   69   73 1   
    71   70   71 1   
    72   70   74 1   
    73   70   75 1   
    74   71   72 2   
    75   71   76 1   
    76   76   77 1   
    77   76   85 1   
    78   77   78 1   
    79   77   80 1   
    80   77   86 1   
    81   78   79 2   
    82   78   93 1   
    83   80   81 1   
    84   80   87 1   
    85   80   88 1   
    86   81   82 1   
    87   81   89 1   
    88   81   90 1   
    89   82   83 1   
    90   82   84 2   
    91   83   91 1   
    92   83   92 1   
    93   93   94 1   
    94   93  100 1   
    95   94   95 1   
    96   94   97 1   
    97   94  101 1   
    98   95   96 2   
    99   95  109 1   
   100   97   98 1   
   101   97   99 1   
   102   97  102 1   
   103   98  103 1   
   104   98  104 1   
   105   98  105 1   
   106   99  106 1   
   107   99  107 1   
   108   99  108 1   
   109  109  110 1   
   110  109  117 1   
   111  110  111 1   
   112  110  113 1   
   113  110  118 1   
   114  111  112 2   
   115  111  123 1   
   116  113  114 1   
   117  113  119 1   
   118  113  120 1   
   119  114  115 1   
   120  114  116 2   
   121  115  121 1   
   122  115  122 1   
   123  123  124 1   
   124  123  135 1   
   125  124  125 1   
   126  124  127 1   
   127  124  136 1   
   128  125  126 2   
   129  125  144 1   
   130  127  128 1   
   131  127  137 1   
   132  127  138 1   
   133  128  129 ar  
   134  128  130 ar  
   135  129  131 ar  
   136  129  139 1   
   137  130  132 ar  
   138  130  140 1   
   139  131  133 ar  
   140  131  141 1   
   141  132  133 ar  
   142  132  142 1   
   143  133  134 1   
   144  134  143 1   
   145  144  145 1   
   146  144  153 1   
   147  145  146 1   
   148  145  148 1   
   149  145  154 1   
   150  146  147 2   
   151  146  159 1   
   152  148  149 1   
   153  148  155 1   
   154  148  156 1   
   155  149  150 1   
   156  149  157 1   
   157  149  158 1   
   158  150  151 1   
   159  150  152 1   
   160  159  160 1   
   161  159  168 1   
   162  160  161 1   
   163  160  163 1   
   164  160  169 1   
   165  161  162 2   
   166  161  174 1   
   167  163  164 1   
   168  163  170 1   
   169  163  171 1   
   170  164  165 1   
   171  164  172 1   
   172  164  173 1   
   173  165  166 1   
   174  165  167 1   
   175  174  175 1   
   176  174  179 1   
   177  175  176 1   
   178  175  177 1   
   179  175  178 1   
   180  181  182 1   
   181  181  183 1   
   182  184  185 1   
   183  184  186 1   
   184  187  188 1   
   185  187  189 1   
   186  190  191 1   
   187  190  192 1   
   188  193  194 1   
   189  193  195 1   
@<TRIPOS>SUBSTRUCTURE
     1 MOL         1 TEMP              0 ****  ****    0 ROOT
