@<TRIPOS>MOLECULE
MOL
  181   177     1     0     0
SMALL
resp


@<TRIPOS>ATOM
      1 C1        -10.8370   -6.4860   -2.3650 c3        1 MOL     -0.351717
      2 C2         -9.8900   -5.9060   -1.2510 c         1 MOL      0.613427
      3 O1         -9.0140   -6.6260   -0.7290 o         1 MOL     -0.561722
      4 H1        -11.1990   -7.4670   -2.0580 hc        1 MOL      0.101711
      5 H2        -11.6840   -5.8150   -2.5080 hc        1 MOL      0.101711
      6 H3        -10.2850   -6.5800   -3.3000 hc        1 MOL      0.101711
      7 N1         -9.9080   -4.5740   -0.9350 n         1 MOL     -0.486662
      8 C3        -10.7530   -3.4470   -1.3810 c3        1 MOL      0.097562
      9 C4        -11.1390   -2.5020   -0.2890 c         1 MOL      0.577803
     10 O2        -10.2620   -1.9890    0.4150 o         1 MOL     -0.588362
     11 C5        -10.1560   -2.6400   -2.5890 c3        1 MOL     -0.014925
     12 C6         -8.7450   -2.0470   -2.5540 c         1 MOL      0.680215
     13 O3         -8.5000   -1.1700   -3.3810 o         1 MOL     -0.667465
     14 O4         -8.0750   -2.3060   -1.5460 o         1 MOL     -0.667465
     15 H4         -9.2870   -4.1700   -0.2510 hn        1 MOL      0.287081
     16 H5        -11.7170   -3.7700   -1.7600 h1        1 MOL     -0.017610
     17 H6        -10.8500   -1.8060   -2.6870 hc        1 MOL     -0.010929
     18 H7        -10.1780   -3.2910   -3.4650 hc        1 MOL     -0.010929
     19 N2        -12.4460   -2.2390   -0.1000 n         1 MOL     -0.572332
     20 C7        -13.1430   -1.1950    0.7040 c3        1 MOL      0.324751
     21 C8        -12.7170    0.3110    0.5450 c         1 MOL      0.263707
     22 O5        -13.5660    1.1490    0.3100 o         1 MOL     -0.537169
     23 C9        -13.2460   -1.6300    2.2040 c3        1 MOL     -0.327317
     24 H8        -13.0960   -2.7640   -0.6680 hn        1 MOL      0.322633
     25 H9        -14.1630   -1.2380    0.3100 h1        1 MOL      0.014574
     26 H10       -13.8870   -0.9470    2.7690 hc        1 MOL      0.093890
     27 H11       -13.6910   -2.6250    2.2300 hc        1 MOL      0.093890
     28 H12       -12.2680   -1.6850    2.6750 hc        1 MOL      0.093890
     29 N3        -11.4250    0.6560    0.5840 n         1 MOL      0.203164
     30 C10       -10.7340    1.9690    0.6950 c3        1 MOL     -0.330605
     31 C11        -9.4880    2.0690   -0.1270 c         1 MOL      0.518812
     32 O6         -8.9080    1.0310   -0.4140 o         1 MOL     -0.499812
     33 C12       -10.3990    2.2160    2.2220 c3        1 MOL      0.015597
     34 C13        -9.6630    1.1420    2.9790 c         1 MOL      0.576602
     35 O7         -9.8720    1.1630    4.1920 o         1 MOL     -0.662286
     36 O8         -9.0110    0.3090    2.3280 o         1 MOL     -0.662286
     37 H13       -10.8030   -0.1350    0.5890 hn        1 MOL     -0.034577
     38 H14       -11.3750    2.7480    0.2750 h1        1 MOL      0.108100
     39 H15       -11.3280    2.3900    2.7760 hc        1 MOL      0.035999
     40 H16        -9.9280    3.1810    2.3810 hc        1 MOL      0.035999
     41 N4         -9.0560    3.2990   -0.4690 n         1 MOL     -0.455302
     42 C14        -7.9550    3.4610   -1.4040 c3        1 MOL      0.032821
     43 C15        -6.5650    3.0990   -0.8240 c         1 MOL      0.530109
     44 O9         -6.3220    3.0480    0.3290 o         1 MOL     -0.482013
     45 H17        -9.5840    4.0540   -0.0690 hn        1 MOL      0.315660
     46 H18        -7.9400    4.4250   -1.9060 h1        1 MOL      0.071851
     47 H19        -8.2170    2.8070   -2.2390 h1        1 MOL      0.071851
     48 N5         -5.5020    3.0700   -1.6460 n         1 MOL     -0.620619
     49 C16        -4.1980    2.4450   -1.2940 c3        1 MOL      0.331173
     50 C17        -3.0680    3.4300   -1.3860 c         1 MOL      0.646886
     51 O10        -3.2500    4.5470   -1.8580 o         1 MOL     -0.534353
     52 C18        -4.0250    1.0610   -2.0860 c3        1 MOL     -0.429164
     53 C19        -5.3470    0.3060   -2.1280 c         1 MOL      0.817716
     54 N6         -5.9360    0.1290   -3.3280 n         1 MOL     -0.861321
     55 O11        -5.9830    0.0550   -1.1070 o         1 MOL     -0.621596
     56 H20        -5.6460    3.2940   -2.6270 hn        1 MOL      0.287328
     57 H21        -4.2210    2.2380   -0.2220 h1        1 MOL      0.034910
     58 H22        -3.3010    0.4110   -1.5990 hc        1 MOL      0.098195
     59 H23        -3.6670    1.3260   -3.0870 hc        1 MOL      0.098195
     60 H24        -5.5880    0.5010   -4.2000 hn        1 MOL      0.386063
     61 H25        -6.8620   -0.2730   -3.3060 hn        1 MOL      0.386063
     62 N7         -1.8720    2.8140   -1.2270 n         1 MOL     -0.682253
     63 C20        -0.5700    3.4870   -1.0590 c3        1 MOL      0.024639
     64 C21        -0.2520    4.0410    0.3820 c         1 MOL      0.543514
     65 O12        -1.0470    3.8910    1.3530 o         1 MOL     -0.558735
     66 H26        -1.8530    1.8110   -1.1280 hn        1 MOL      0.360733
     67 H27        -0.4810    4.3270   -1.7370 h1        1 MOL      0.108674
     68 H28         0.2790    2.8140   -1.2180 h1        1 MOL      0.108674
     69 N8          0.8790    4.7000    0.6390 n         1 MOL     -0.401473
     70 C22         1.9830    5.1140   -0.2920 c3        1 MOL     -0.309779
     71 C23         3.1910    4.2020   -0.3220 c         1 MOL      0.751420
     72 O13         3.9160    4.3280   -1.2490 o         1 MOL     -0.553086
     73 C24         2.3930    6.5640    0.0270 c3        1 MOL      0.572906
     74 C25         1.3750    7.5300   -0.3810 c3        1 MOL     -0.429218
     75 O14         2.8450    6.7940    1.3390 oh        1 MOL     -0.620777
     76 H29         0.8700    4.9690    1.6130 hn        1 MOL      0.262448
     77 H30         1.6590    5.1500   -1.3310 h1        1 MOL      0.086573
     78 H31         3.2510    6.8050   -0.6000 h1        1 MOL     -0.004007
     79 H32         2.0980    7.2960    1.6870 ho        1 MOL      0.365111
     80 H33         1.3100    7.6070   -1.4580 hc        1 MOL      0.098880
     81 H34         0.4170    7.2280    0.0390 hc        1 MOL      0.098880
     82 H35         1.6210    8.5240   -0.0050 hc        1 MOL      0.098880
     83 N9          3.4310    3.3910    0.6700 n         1 MOL     -0.555107
     84 C26         4.6490    2.5930    0.7800 c3        1 MOL      0.043322
     85 C27         4.7780    1.5600   -0.3530 c         1 MOL      0.577942
     86 O15         3.8390    0.8800   -0.6830 o         1 MOL     -0.588244
     87 C28         4.9370    2.0010    2.2510 c3        1 MOL     -0.051873
     88 C29         4.9870    3.0140    3.3460 c3        1 MOL      0.156029
     89 C30         6.1810    1.1380    2.1420 c3        1 MOL     -0.091928
     90 C31         3.6950    3.5520    3.9590 c3        1 MOL     -0.058496
     91 H36         2.8020    3.2880    1.4490 hn        1 MOL      0.294789
     92 H37         5.3720    3.3880    0.6030 h1        1 MOL      0.122005
     93 H38         4.1530    1.2560    2.3670 hc        1 MOL      0.081639
     94 H39         5.5560    3.8930    3.0400 hc        1 MOL     -0.028603
     95 H40         5.5540    2.5920    4.1740 hc        1 MOL     -0.028603
     96 H41         6.4670    0.6850    3.0970 hc        1 MOL      0.022364
     97 H42         6.0170    0.3890    1.3750 hc        1 MOL      0.022364
     98 H43         7.0570    1.7540    1.9480 hc        1 MOL      0.022364
     99 H44         2.9870    2.7720    4.2260 hc        1 MOL     -0.002448
    100 H45         4.0160    4.2930    4.6910 hc        1 MOL     -0.002448
    101 H46         3.1640    4.0690    3.1540 hc        1 MOL     -0.002448
    102 N10         5.8310    1.4710   -1.1640 n         1 MOL     -0.415958
    103 C32         7.0910    2.2420   -1.0900 c3        1 MOL      0.037034
    104 C33         8.2340    1.2000   -1.2130 c         1 MOL      0.579117
    105 O16         8.4810    0.7170   -2.3240 o         1 MOL     -0.545329
    106 C34         6.9810    3.2580   -2.3280 c3        1 MOL     -0.212395
    107 C35         8.0120    4.2850   -2.4080 c         1 MOL      0.756583
    108 O17         7.7530    5.2220   -3.2140 o         1 MOL     -0.757037
    109 O18         9.0830    4.2320   -1.7690 o         1 MOL     -0.757037
    110 H47         5.7810    0.7250   -1.8380 hn        1 MOL      0.287119
    111 H48         7.1360    2.7770   -0.1460 h1        1 MOL      0.020075
    112 H49         5.9990    3.7150   -2.1890 hc        1 MOL      0.056859
    113 H50         6.9840    2.7070   -3.2700 hc        1 MOL      0.056859
    114 N11         8.8440    0.7740   -0.1110 n         1 MOL     -0.666348
    115 C36         9.9710   -0.2100   -0.1060 c3        1 MOL      0.421810
    116 C37         9.8490   -1.0480    1.1770 c         1 MOL      0.296991
    117 O19         9.2640   -0.5790    2.1520 o         1 MOL     -0.498808
    118 C38        11.2550    0.4980   -0.3230 c3        1 MOL     -0.181253
    119 C39        12.5410   -0.2520   -0.3510 ca        1 MOL      0.100947
    120 C40        13.1610   -0.6530    0.8330 ca        1 MOL     -0.145616
    121 C41        12.9920   -0.6760   -1.5810 ca        1 MOL     -0.145616
    122 C42        14.2530   -1.5100    0.8030 ca        1 MOL     -0.127190
    123 C43        14.1800   -1.4040   -1.6120 ca        1 MOL     -0.127190
    124 C44        14.7180   -1.9250   -0.4600 ca        1 MOL     -0.111494
    125 H51         8.5310    1.0310    0.8120 hn        1 MOL      0.352083
    126 H52         9.8290   -0.9930   -0.8560 h1        1 MOL     -0.030627
    127 H53        11.3940    1.2490    0.4610 hc        1 MOL      0.077782
    128 H54        11.1890    1.0730   -1.2420 hc        1 MOL      0.077782
    129 H55        12.7360   -0.3120    1.7570 ha        1 MOL      0.119813
    130 H56        12.4350   -0.4350   -2.4740 ha        1 MOL      0.119813
    131 H57        14.7310   -1.8230    1.7170 ha        1 MOL      0.099717
    132 H58        14.5920   -1.8560   -2.5050 ha        1 MOL      0.099717
    133 H59        15.5940   -2.5400   -0.6060 ha        1 MOL      0.085184
    134 N12        10.3760   -2.2950    1.2660 n         1 MOL     -0.004844
    135 C45        10.5050   -3.2060    0.0980 c3        1 MOL      0.054628
    136 C46         9.1490   -3.5530   -0.5280 c         1 MOL      0.482668
    137 O20         9.1480   -3.6180   -1.7740 o         1 MOL     -0.557808
    138 C47        11.2790   -4.3960    0.5730 c3        1 MOL     -0.039184
    139 C48        11.0910   -4.4300    2.1420 c3        1 MOL     -0.034535
    140 C49        10.7630   -2.9290    2.4460 c3        1 MOL     -0.202966
    141 H60        11.1510   -2.7830   -0.6670 h1        1 MOL      0.038314
    142 H61        10.8610   -5.2420    0.0160 hc        1 MOL      0.018366
    143 H62        12.3330   -4.2440    0.3490 hc        1 MOL      0.018366
    144 H63        10.2230   -5.0660    2.3160 hc        1 MOL      0.027877
    145 H64        11.9560   -4.8260    2.6740 hc        1 MOL      0.027877
    146 H65         9.9910   -2.8220    3.2020 h1        1 MOL      0.080272
    147 H66        11.6120   -2.4660    2.9570 h1        1 MOL      0.080272
    148 N13         8.1360   -3.7820    0.3150 n         1 MOL     -0.305434
    149 C50         6.8310   -4.1080   -0.2230 c3        1 MOL      0.087974
    150 C51         6.7920   -5.5590   -0.6590 c         1 MOL      0.378060
    151 O21         6.8520   -6.5310    0.0950 o         1 MOL     -0.566346
    152 C52         5.7690   -3.7730    0.7700 c3        1 MOL     -0.041064
    153 C53         5.8310   -2.3700    1.3680 c3        1 MOL     -0.014467
    154 C54         4.9400   -2.2870    2.6270 c         1 MOL      0.699442
    155 O22         5.3940   -2.2530    3.7920 o         1 MOL     -0.732223
    156 O23         3.6750   -2.2050    2.3900 o         1 MOL     -0.732223
    157 H67         8.2840   -3.8360    1.3130 hn        1 MOL      0.307351
    158 H68         6.7370   -3.4900   -1.1170 h1        1 MOL      0.083902
    159 H69         5.9320   -4.3980    1.6410 hc        1 MOL      0.009555
    160 H70         4.7650   -4.0620    0.4330 hc        1 MOL      0.009555
    161 H71         5.4010   -1.6970    0.6340 hc        1 MOL     -0.038412
    162 H72         6.8780   -2.1410    1.5460 hc        1 MOL     -0.038412
    163 N14         6.9540   -5.8340   -1.9560 n         1 MOL     -0.244243
    164 C55         6.9350   -4.9900   -3.2150 c3        1 MOL     -0.238614
    165 H73         7.6480   -4.1730   -3.1140 h1        1 MOL      0.106147
    166 H74         7.2080   -5.6080   -4.0720 h1        1 MOL      0.106147
    167 H75         5.9340   -4.5830   -3.3650 h1        1 MOL      0.106147
    168 H76         6.9430   -6.8370   -2.0800 hn        1 MOL      0.230054
    169 Ca1        -7.6390   -1.1200    0.7100 Ca        1 MOL      1.722783
    170 O24        -6.2570   -0.2060    2.5650 oh        1 MOL     -0.822183
    171 H77        -6.7960   -0.0880    3.3580 ho        1 MOL      0.407828
    172 H78        -5.3690   -0.0320    2.8570 ho        1 MOL      0.407828
    173 O25        -7.8580   -2.5310    3.1330 oh        1 MOL     -0.822183
    174 H79        -8.6500   -3.0510    3.1710 ho        1 MOL      0.407828
    175 H80        -7.9560   -1.8790    3.8350 ho        1 MOL      0.407828
    176 O26        -7.6200   -4.0570    0.7610 oh        1 MOL     -0.822183
    177 H81        -6.7350   -4.0170    1.1370 ho        1 MOL      0.407828
    178 H82        -8.0470   -4.7780    1.2330 ho        1 MOL      0.407828
    179 O27        -5.3310   -2.3470    0.3940 oh        1 MOL     -0.822183
    180 H83        -4.8750   -2.8400    1.0700 ho        1 MOL      0.407828
    181 H84        -4.6800   -2.2400   -0.3030 ho        1 MOL      0.407828
@<TRIPOS>BOND
     1    1    2 1   
     2    1    4 1   
     3    1    5 1   
     4    1    6 1   
     5    2    3 2   
     6    2    7 1   
     7    7    8 1   
     8    7   15 1   
     9    8    9 1   
    10    8   11 1   
    11    8   16 1   
    12    9   10 2   
    13    9   19 1   
    14   11   12 1   
    15   11   17 1   
    16   11   18 1   
    17   12   13 1   
    18   12   14 1   
    19   19   20 1   
    20   19   24 1   
    21   20   21 1   
    22   20   23 1   
    23   20   25 1   
    24   21   22 2   
    25   21   29 1   
    26   23   26 1   
    27   23   27 1   
    28   23   28 1   
    29   29   30 1   
    30   29   37 1   
    31   30   31 1   
    32   30   33 1   
    33   30   38 1   
    34   31   32 2   
    35   31   41 1   
    36   33   34 1   
    37   33   39 1   
    38   33   40 1   
    39   34   35 1   
    40   34   36 1   
    41   41   42 1   
    42   41   45 1   
    43   42   43 1   
    44   42   46 1   
    45   42   47 1   
    46   43   44 2   
    47   43   48 1   
    48   48   49 1   
    49   48   56 1   
    50   49   50 1   
    51   49   52 1   
    52   49   57 1   
    53   50   51 2   
    54   50   62 1   
    55   52   53 1   
    56   52   58 1   
    57   52   59 1   
    58   53   54 1   
    59   53   55 2   
    60   54   60 1   
    61   54   61 1   
    62   62   63 1   
    63   62   66 1   
    64   63   64 1   
    65   63   67 1   
    66   63   68 1   
    67   64   65 2   
    68   64   69 1   
    69   69   70 1   
    70   69   76 1   
    71   70   71 1   
    72   70   73 1   
    73   70   77 1   
    74   71   72 2   
    75   71   83 1   
    76   73   74 1   
    77   73   75 1   
    78   73   78 1   
    79   74   80 1   
    80   74   81 1   
    81   74   82 1   
    82   75   79 1   
    83   83   84 1   
    84   83   91 1   
    85   84   85 1   
    86   84   87 1   
    87   84   92 1   
    88   85   86 2   
    89   85  102 1   
    90   87   88 1   
    91   87   89 1   
    92   87   93 1   
    93   88   90 1   
    94   88   94 1   
    95   88   95 1   
    96   89   96 1   
    97   89   97 1   
    98   89   98 1   
    99   90   99 1   
   100   90  100 1   
   101   90  101 1   
   102  102  103 1   
   103  102  110 1   
   104  103  104 1   
   105  103  106 1   
   106  103  111 1   
   107  104  105 2   
   108  104  114 1   
   109  106  107 1   
   110  106  112 1   
   111  106  113 1   
   112  107  108 1   
   113  107  109 1   
   114  114  115 1   
   115  114  125 1   
   116  115  116 1   
   117  115  118 1   
   118  115  126 1   
   119  116  117 2   
   120  116  134 1   
   121  118  119 1   
   122  118  127 1   
   123  118  128 1   
   124  119  120 ar  
   125  119  121 ar  
   126  120  122 ar  
   127  120  129 1   
   128  121  123 ar  
   129  121  130 1   
   130  122  124 ar  
   131  122  131 1   
   132  123  124 ar  
   133  123  132 1   
   134  124  133 1   
   135  134  135 1   
   136  134  140 1   
   137  135  136 1   
   138  135  138 1   
   139  135  141 1   
   140  136  137 2   
   141  136  148 1   
   142  138  139 1   
   143  138  142 1   
   144  138  143 1   
   145  139  140 1   
   146  139  144 1   
   147  139  145 1   
   148  140  146 1   
   149  140  147 1   
   150  148  149 1   
   151  148  157 1   
   152  149  150 1   
   153  149  152 1   
   154  149  158 1   
   155  150  151 2   
   156  150  163 1   
   157  152  153 1   
   158  152  159 1   
   159  152  160 1   
   160  153  154 1   
   161  153  161 1   
   162  153  162 1   
   163  154  155 1   
   164  154  156 1   
   165  163  164 1   
   166  163  168 1   
   167  164  165 1   
   168  164  166 1   
   169  164  167 1   
   170  170  171 1   
   171  170  172 1   
   172  173  174 1   
   173  173  175 1   
   174  176  177 1   
   175  176  178 1   
   176  179  180 1   
   177  179  181 1   
@<TRIPOS>SUBSTRUCTURE
     1 MOL         1 TEMP              0 ****  ****    0 ROOT
