@<TRIPOS>MOLECULE
MOL
  181   177     1     0     0
SMALL
resp


@<TRIPOS>ATOM
      1 C1         -5.1950    6.2140    4.3680 c3        1 MOL     -0.244087
      2 C2         -4.7640    4.8540    3.7590 c         1 MOL      0.683022
      3 O1         -3.9450    4.1340    4.3510 o         1 MOL     -0.572979
      4 H1         -4.3100    6.7700    4.6780 hc        1 MOL      0.050048
      5 H2         -5.7420    6.7910    3.6210 hc        1 MOL      0.050048
      6 H3         -5.8350    6.0400    5.2330 hc        1 MOL      0.050048
      7 N1         -5.2690    4.4780    2.5780 n         1 MOL     -0.597698
      8 C3         -6.2900    5.2220    1.8410 c3        1 MOL      0.306204
      9 C4         -6.0050    5.0310    0.3180 c         1 MOL      0.304168
     10 O2         -5.0860    4.3590   -0.0230 o         1 MOL     -0.404769
     11 C5         -7.6930    4.7150    2.2700 c3        1 MOL     -0.389702
     12 C6         -7.9000    3.3360    1.7110 c         1 MOL      0.812552
     13 O3         -8.6170    3.2410    0.6980 o         1 MOL     -0.708327
     14 O4         -7.5080    2.3310    2.3000 o         1 MOL     -0.708327
     15 H4         -4.9700    3.6220    2.1370 hn        1 MOL      0.368188
     16 H5         -6.2810    6.3060    1.9860 h1        1 MOL      0.021536
     17 H6         -8.4310    5.4330    1.8910 hc        1 MOL      0.065910
     18 H7         -7.7630    4.7440    3.3580 hc        1 MOL      0.065910
     19 N2         -6.8480    5.6730   -0.5000 n         1 MOL     -0.391643
     20 C7         -6.7220    5.8020   -1.9240 c3        1 MOL      0.107994
     21 C8         -6.5660    4.4830   -2.7630 c         1 MOL      0.525271
     22 O5         -6.2860    4.5800   -3.9660 o         1 MOL     -0.557207
     23 C9         -5.6460    6.8270   -2.1580 c3        1 MOL     -0.319924
     24 H8         -7.5290    6.1990    0.0410 hn        1 MOL      0.273879
     25 H9         -7.7030    6.1570   -2.2530 h1        1 MOL      0.052926
     26 H10        -5.8710    7.7180   -1.5640 hc        1 MOL      0.098083
     27 H11        -4.6500    6.4870   -1.8900 hc        1 MOL      0.098083
     28 H12        -5.5030    7.1520   -3.1880 hc        1 MOL      0.098083
     29 N3         -6.8080    3.2730   -2.2040 n         1 MOL     -0.429690
     30 C10        -6.3170    1.9910   -2.7740 c3        1 MOL      0.193984
     31 C11        -7.4810    0.9760   -2.8070 c         1 MOL      0.541383
     32 O6         -8.4870    1.1290   -2.0850 o         1 MOL     -0.561893
     33 C12        -5.0380    1.6500   -1.9550 c3        1 MOL     -0.008825
     34 C13        -5.1430    1.1810   -0.5300 c         1 MOL      0.741630
     35 O7         -6.2120    0.8390   -0.0590 o         1 MOL     -0.697684
     36 O8         -4.0960    1.0720    0.0490 o         1 MOL     -0.697684
     37 H13        -7.1610    3.3490   -1.2610 hn        1 MOL      0.138519
     38 H14        -6.0260    2.1430   -3.8130 h1        1 MOL     -0.003533
     39 H15        -4.3300    2.4580   -2.1360 hc        1 MOL      0.006360
     40 H16        -4.6980    0.7600   -2.4860 hc        1 MOL      0.006360
     41 N4         -7.2740   -0.1650   -3.4990 n         1 MOL     -0.470640
     42 C14        -8.1960   -1.3410   -3.4830 c3        1 MOL     -0.217784
     43 C15        -8.1250   -2.1830   -2.1790 c         1 MOL      0.626101
     44 O9         -8.0630   -1.7120   -1.1050 o         1 MOL     -0.644340
     45 H17        -6.3230   -0.4100   -3.7390 hn        1 MOL      0.325291
     46 H18        -7.9910   -1.9570   -4.3550 h1        1 MOL      0.133488
     47 H19        -9.2200   -0.9700   -3.5800 h1        1 MOL      0.133488
     48 N5         -7.8940   -3.4560   -2.3270 n         1 MOL     -0.553010
     49 C16        -7.1620   -4.3610   -1.3580 c3        1 MOL      0.207780
     50 C17        -5.7180   -3.8440   -1.2370 c         1 MOL      0.508553
     51 O10        -5.1210   -3.2150   -2.1340 o         1 MOL     -0.485826
     52 C18        -7.3130   -5.8430   -1.7550 c3        1 MOL     -0.366215
     53 C19        -8.6390   -6.4160   -1.5650 c         1 MOL      0.766691
     54 N6         -9.1470   -6.3570   -0.3430 n         1 MOL     -0.791715
     55 O11        -9.3130   -6.8740   -2.4610 o         1 MOL     -0.575397
     56 H20        -7.9100   -3.7800   -3.2830 hn        1 MOL      0.290324
     57 H21        -7.5850   -4.1140   -0.3810 h1        1 MOL     -0.008689
     58 H22        -6.5360   -6.3870   -1.2080 hc        1 MOL      0.117026
     59 H23        -7.0060   -5.9880   -2.7900 hc        1 MOL      0.117026
     60 H24        -8.7060   -5.8420    0.4040 hn        1 MOL      0.345437
     61 H25       -10.1110   -6.6500   -0.3090 hn        1 MOL      0.345437
     62 N7         -5.0960   -3.9710   -0.0590 n         1 MOL     -0.314043
     63 C20        -3.6720   -3.7880    0.2900 c3        1 MOL     -0.180654
     64 C21        -2.8200   -5.0420    0.2790 c         1 MOL      0.661694
     65 O12        -3.2690   -6.1160   -0.0260 o         1 MOL     -0.592600
     66 H26        -5.6450   -4.5370    0.5730 hn        1 MOL      0.223294
     67 H27        -3.7460   -3.2230    1.2170 h1        1 MOL      0.141487
     68 H28        -3.2500   -3.1380   -0.4700 h1        1 MOL      0.141487
     69 N8         -1.5770   -4.9770    0.7380 n         1 MOL     -0.498506
     70 C22        -0.9440   -3.8990    1.4640 c3        1 MOL     -0.128764
     71 C23         0.5480   -3.6660    1.1150 c         1 MOL      0.690351
     72 O13         1.3250   -4.5620    0.8900 o         1 MOL     -0.565945
     73 C24        -0.9180   -4.2420    2.9840 c3        1 MOL      0.401897
     74 C25        -0.2240   -3.3120    4.0800 c3        1 MOL     -0.443438
     75 O14        -2.2800   -4.3800    3.4780 oh        1 MOL     -0.616529
     76 H29        -1.0610   -5.8370    0.5840 hn        1 MOL      0.309197
     77 H30        -1.4430   -2.9400    1.3260 h1        1 MOL      0.122416
     78 H31        -0.4660   -5.2370    3.0150 h1        1 MOL     -0.011241
     79 H32        -2.4370   -5.3250    3.3800 ho        1 MOL      0.355900
     80 H33        -0.1280   -3.8460    5.0230 hc        1 MOL      0.136704
     81 H34         0.7900   -3.1360    3.7280 hc        1 MOL      0.136704
     82 H35        -0.8340   -2.4060    4.1170 hc        1 MOL      0.136704
     83 N9          0.9990   -2.4040    0.8670 n         1 MOL     -0.557403
     84 C26         2.3840   -2.0750    0.3750 c3        1 MOL     -0.042770
     85 C27         3.3060   -1.6210    1.5470 c         1 MOL      0.670608
     86 O15         2.7940   -1.3040    2.6580 o         1 MOL     -0.625662
     87 C28         2.3320   -1.1620   -0.8850 c3        1 MOL      0.411632
     88 C29         1.8300    0.2630   -0.5690 c3        1 MOL     -0.257822
     89 C30         1.5050   -1.9110   -1.9210 c3        1 MOL     -0.365461
     90 C31         2.1100    1.3260   -1.6300 c3        1 MOL     -0.048529
     91 H36         0.3810   -1.6150    0.9960 hn        1 MOL      0.254314
     92 H37         2.8170   -2.9880   -0.0380 h1        1 MOL      0.139908
     93 H38         3.3340   -1.0270   -1.2870 hc        1 MOL     -0.038643
     94 H39         2.2900    0.6300    0.3460 hc        1 MOL      0.070000
     95 H40         0.7480    0.1850   -0.4520 hc        1 MOL      0.070000
     96 H41         2.1960   -2.7090   -2.1710 hc        1 MOL      0.064189
     97 H42         0.5530   -2.2590   -1.5080 hc        1 MOL      0.064189
     98 H43         1.4680   -1.2270   -2.7690 hc        1 MOL      0.064189
     99 H44         3.0920    1.2980   -2.0990 hc        1 MOL      0.026572
    100 H45         1.3340    1.3020   -2.3890 hc        1 MOL      0.026572
    101 H46         1.9280    2.2900   -1.1420 hc        1 MOL      0.026572
    102 N10         4.6180   -1.4760    1.4910 n         1 MOL     -0.487671
    103 C32         5.5800   -2.1030    0.6250 c3        1 MOL      0.015210
    104 C33         6.8230   -1.1600    0.6400 c         1 MOL      0.382569
    105 O16         7.0640   -0.3700    1.5280 o         1 MOL     -0.461200
    106 C34         6.0130   -3.4810    1.1370 c3        1 MOL     -0.162229
    107 C35         6.3240   -3.5010    2.6430 c         1 MOL      0.742183
    108 O17         7.3640   -2.8590    2.9820 o         1 MOL     -0.671579
    109 O18         5.6910   -4.2620    3.3980 o         1 MOL     -0.671579
    110 H47         5.0390   -1.0220    2.2940 hn        1 MOL      0.330357
    111 H48         5.0780   -2.1670   -0.3500 h1        1 MOL      0.031829
    112 H49         6.9440   -3.8850    0.7270 hc        1 MOL      0.008095
    113 H50         5.0950   -4.0720    1.0700 hc        1 MOL      0.008095
    114 N11         7.6670   -1.3380   -0.3860 n         1 MOL     -0.374218
    115 C36         9.0520   -0.9280   -0.5100 c3        1 MOL      0.541403
    116 C37         9.3220   -0.3830   -1.9410 c         1 MOL     -0.137897
    117 O19         8.8290   -1.0030   -2.8970 o         1 MOL     -0.450207
    118 C38         9.8810   -2.1710   -0.1610 c3        1 MOL     -0.163579
    119 C39        11.3950   -1.8630   -0.0500 ca        1 MOL      0.051858
    120 C40        12.1380   -1.6680   -1.2240 ca        1 MOL     -0.170015
    121 C41        12.1020   -1.8060    1.2340 ca        1 MOL     -0.170015
    122 C42        13.5150   -1.5320   -1.2130 ca        1 MOL     -0.123344
    123 C43        13.4960   -1.6080    1.2260 ca        1 MOL     -0.123344
    124 C44        14.1500   -1.4000    0.0100 ca        1 MOL     -0.112280
    125 H51         7.3980   -2.1110   -0.9820 hn        1 MOL      0.252467
    126 H52         9.1670   -0.1760    0.2560 h1        1 MOL     -0.039831
    127 H53         9.7150   -2.9140   -0.9350 hc        1 MOL      0.065334
    128 H54         9.4940   -2.6020    0.7720 hc        1 MOL      0.065334
    129 H55        11.6900   -1.5600   -2.1960 ha        1 MOL      0.148727
    130 H56        11.5860   -1.9390    2.1710 ha        1 MOL      0.148727
    131 H57        14.0680   -1.4820   -2.1410 ha        1 MOL      0.100805
    132 H58        14.1330   -1.6030    2.0980 ha        1 MOL      0.100805
    133 H59        15.1990   -1.1530   -0.0260 ha        1 MOL      0.076719
    134 N12         9.9720    0.7500   -2.1460 n         1 MOL      0.386860
    135 C45        10.7060    1.5220   -1.1110 c3        1 MOL     -0.074270
    136 C46         9.7750    2.2050   -0.0800 c         1 MOL      0.448892
    137 O20        10.1050    2.3660    1.1380 o         1 MOL     -0.606644
    138 C47        11.5800    2.5590   -1.9110 c3        1 MOL     -0.093077
    139 C48        11.7520    1.8560   -3.2260 c3        1 MOL      0.061206
    140 C49        10.3760    1.1840   -3.5000 c3        1 MOL     -0.184048
    141 H60        11.3070    0.8510   -0.4960 h1        1 MOL      0.056407
    142 H61        11.0800    3.4980   -2.1320 hc        1 MOL      0.057940
    143 H62        12.4830    2.8690   -1.3930 hc        1 MOL      0.057940
    144 H63        12.0240    2.5360   -4.0310 hc        1 MOL     -0.030773
    145 H64        12.5680    1.1290   -3.1570 hc        1 MOL     -0.030773
    146 H65         9.6100    1.9000   -3.7870 h1        1 MOL      0.084907
    147 H66        10.5130    0.3060   -4.1360 h1        1 MOL      0.084907
    148 N13         8.5070    2.5490   -0.3430 n         1 MOL     -0.138666
    149 C50         7.5710    3.2090    0.5320 c3        1 MOL      0.031669
    150 C51         8.1400    4.6440    0.8190 c         1 MOL      0.455099
    151 O21         8.4130    5.4090   -0.0860 o         1 MOL     -0.533936
    152 C52         6.2150    3.3540   -0.2350 c3        1 MOL     -0.241850
    153 C53         5.5660    2.1110   -0.9470 c3        1 MOL      0.288559
    154 C54         6.3390    1.5770   -2.1620 c         1 MOL      0.568422
    155 O22         5.7430    0.5920   -2.7230 o         1 MOL     -0.635042
    156 O23         7.2810    2.1800   -2.7220 o         1 MOL     -0.635042
    157 H67         8.2060    2.3540   -1.2880 hn        1 MOL      0.078369
    158 H68         7.3810    2.7150    1.4790 h1        1 MOL      0.124983
    159 H69         6.3890    4.2050   -0.9010 hc        1 MOL      0.044966
    160 H70         5.4880    3.6210    0.5210 hc        1 MOL      0.044966
    161 H71         4.5500    2.4220   -1.1750 hc        1 MOL     -0.095752
    162 H72         5.5580    1.2900   -0.2330 hc        1 MOL     -0.095752
    163 N14         8.3210    5.0210    2.1310 n         1 MOL     -0.413053
    164 C55         8.5740    4.1210    3.2650 c3        1 MOL     -0.076650
    165 H73         9.4760    3.5400    3.0730 h1        1 MOL      0.065266
    166 H74         8.7070    4.7080    4.1730 h1        1 MOL      0.065266
    167 H75         7.7280    3.4450    3.3890 h1        1 MOL      0.065266
    168 H76         8.5590    6.0050    2.1860 hn        1 MOL      0.261837
    169 Ca1        -8.6370    0.5950    0.7000 Ca        1 MOL      1.701236
    170 O24       -10.3770   -1.2970    1.0100 oh        1 MOL     -0.766302
    171 H77       -10.2060   -2.0360    0.4260 ho        1 MOL      0.367029
    172 H78       -11.0580   -1.6020    1.6110 ho        1 MOL      0.367029
    173 O25       -11.1790    1.4940   -0.0950 oh        1 MOL     -0.766302
    174 H79       -11.3000    2.2570   -0.6490 ho        1 MOL      0.367029
    175 H80       -11.9790    0.9880   -0.2120 ho        1 MOL      0.367029
    176 O26        -9.9710    0.8400    3.1900 oh        1 MOL     -0.766302
    177 H81        -9.9410    0.0220    3.6950 ho        1 MOL      0.367029
    178 H82       -10.8880    1.1140    3.2360 ho        1 MOL      0.367029
    179 O27        -7.7020   -1.2080    2.4600 oh        1 MOL     -0.766302
    180 H83        -8.3470   -1.7520    2.9020 ho        1 MOL      0.367029
    181 H84        -6.9060   -1.7310    2.4430 ho        1 MOL      0.367029
@<TRIPOS>BOND
     1    1    2 1   
     2    1    4 1   
     3    1    5 1   
     4    1    6 1   
     5    2    3 2   
     6    2    7 1   
     7    7    8 1   
     8    7   15 1   
     9    8    9 1   
    10    8   11 1   
    11    8   16 1   
    12    9   10 2   
    13    9   19 1   
    14   11   12 1   
    15   11   17 1   
    16   11   18 1   
    17   12   13 1   
    18   12   14 1   
    19   19   20 1   
    20   19   24 1   
    21   20   21 1   
    22   20   23 1   
    23   20   25 1   
    24   21   22 2   
    25   21   29 1   
    26   23   26 1   
    27   23   27 1   
    28   23   28 1   
    29   29   30 1   
    30   29   37 1   
    31   30   31 1   
    32   30   33 1   
    33   30   38 1   
    34   31   32 2   
    35   31   41 1   
    36   33   34 1   
    37   33   39 1   
    38   33   40 1   
    39   34   35 1   
    40   34   36 1   
    41   41   42 1   
    42   41   45 1   
    43   42   43 1   
    44   42   46 1   
    45   42   47 1   
    46   43   44 2   
    47   43   48 1   
    48   48   49 1   
    49   48   56 1   
    50   49   50 1   
    51   49   52 1   
    52   49   57 1   
    53   50   51 2   
    54   50   62 1   
    55   52   53 1   
    56   52   58 1   
    57   52   59 1   
    58   53   54 1   
    59   53   55 2   
    60   54   60 1   
    61   54   61 1   
    62   62   63 1   
    63   62   66 1   
    64   63   64 1   
    65   63   67 1   
    66   63   68 1   
    67   64   65 2   
    68   64   69 1   
    69   69   70 1   
    70   69   76 1   
    71   70   71 1   
    72   70   73 1   
    73   70   77 1   
    74   71   72 2   
    75   71   83 1   
    76   73   74 1   
    77   73   75 1   
    78   73   78 1   
    79   74   80 1   
    80   74   81 1   
    81   74   82 1   
    82   75   79 1   
    83   83   84 1   
    84   83   91 1   
    85   84   85 1   
    86   84   87 1   
    87   84   92 1   
    88   85   86 2   
    89   85  102 1   
    90   87   88 1   
    91   87   89 1   
    92   87   93 1   
    93   88   90 1   
    94   88   94 1   
    95   88   95 1   
    96   89   96 1   
    97   89   97 1   
    98   89   98 1   
    99   90   99 1   
   100   90  100 1   
   101   90  101 1   
   102  102  103 1   
   103  102  110 1   
   104  103  104 1   
   105  103  106 1   
   106  103  111 1   
   107  104  105 2   
   108  104  114 1   
   109  106  107 1   
   110  106  112 1   
   111  106  113 1   
   112  107  108 1   
   113  107  109 1   
   114  114  115 1   
   115  114  125 1   
   116  115  116 1   
   117  115  118 1   
   118  115  126 1   
   119  116  117 2   
   120  116  134 1   
   121  118  119 1   
   122  118  127 1   
   123  118  128 1   
   124  119  120 ar  
   125  119  121 ar  
   126  120  122 ar  
   127  120  129 1   
   128  121  123 ar  
   129  121  130 1   
   130  122  124 ar  
   131  122  131 1   
   132  123  124 ar  
   133  123  132 1   
   134  124  133 1   
   135  134  135 1   
   136  134  140 1   
   137  135  136 1   
   138  135  138 1   
   139  135  141 1   
   140  136  137 2   
   141  136  148 1   
   142  138  139 1   
   143  138  142 1   
   144  138  143 1   
   145  139  140 1   
   146  139  144 1   
   147  139  145 1   
   148  140  146 1   
   149  140  147 1   
   150  148  149 1   
   151  148  157 1   
   152  149  150 1   
   153  149  152 1   
   154  149  158 1   
   155  150  151 2   
   156  150  163 1   
   157  152  153 1   
   158  152  159 1   
   159  152  160 1   
   160  153  154 1   
   161  153  161 1   
   162  153  162 1   
   163  154  155 1   
   164  154  156 1   
   165  163  164 1   
   166  163  168 1   
   167  164  165 1   
   168  164  166 1   
   169  164  167 1   
   170  170  171 1   
   171  170  172 1   
   172  173  174 1   
   173  173  175 1   
   174  176  177 1   
   175  176  178 1   
   176  179  180 1   
   177  179  181 1   
@<TRIPOS>SUBSTRUCTURE
     1 MOL         1 TEMP              0 ****  ****    0 ROOT
