@<TRIPOS>MOLECULE
MOL
  192   187     1     0     0
SMALL
resp


@<TRIPOS>ATOM
      1 C1         -5.1700   -5.0090    3.9240 c3        1 MOL     -0.402928
      2 C2         -5.0540   -4.0140    2.7580 c         1 MOL      0.754718
      3 O1         -5.0570   -4.4690    1.6130 o         1 MOL     -0.603268
      4 H1         -6.1160   -5.5450    3.8500 hc        1 MOL      0.104025
      5 H2         -4.3450   -5.7200    3.8790 hc        1 MOL      0.104025
      6 H3         -5.1320   -4.4670    4.8690 hc        1 MOL      0.104025
      7 N1         -4.8880   -2.6900    2.9340 n         1 MOL     -0.559714
      8 C3         -4.8420   -1.6000    1.9380 c3        1 MOL      0.198958
      9 C4         -3.4280   -1.2030    1.5150 c         1 MOL      0.021233
     10 O2         -3.2920   -0.4000    0.6410 o         1 MOL     -0.305910
     11 C5         -5.6360   -0.3320    2.4810 c3        1 MOL     -0.156270
     12 C6         -5.1930    0.1420    3.8710 c         1 MOL      0.724242
     13 O3         -5.5830   -0.4610    4.8850 o         1 MOL     -0.707674
     14 O4         -4.4660    1.1030    3.9260 o         1 MOL     -0.707674
     15 H4         -4.7670   -2.3860    3.8890 hn        1 MOL      0.284688
     16 H5         -5.3160   -1.9880    1.0340 h1        1 MOL      0.083926
     17 H6         -6.6470   -0.7240    2.5260 hc        1 MOL      0.049955
     18 H7         -5.6030    0.4610    1.7340 hc        1 MOL      0.049955
     19 N2         -2.3840   -1.9430    1.9490 n         1 MOL     -0.088714
     20 C7         -0.9140   -1.6470    1.7990 c3        1 MOL      0.129436
     21 C8         -0.1260   -2.8670    1.3120 c         1 MOL      0.546535
     22 O5         -0.4560   -3.9790    1.7260 o         1 MOL     -0.536621
     23 C9         -0.3610   -1.0980    3.1900 c3        1 MOL     -0.185663
     24 C10        -0.8610    0.3170    3.5050 c3        1 MOL      0.046121
     25 C11        -0.5890    0.6830    4.9890 c3        1 MOL     -0.123031
     26 C12        -1.0260    2.0540    5.3790 c3        1 MOL      0.124191
     27 N3         -2.4720    2.1870    5.6380 n4        1 MOL     -0.354004
     28 H8         -2.6620   -2.7360    2.5140 hn        1 MOL      0.189228
     29 H9         -0.7230   -0.7740    1.1650 h1        1 MOL     -0.006770
     30 H10         0.7180   -0.9620    3.0900 hc        1 MOL      0.038941
     31 H11        -0.5200   -1.8050    3.9980 hc        1 MOL      0.038941
     32 H12        -1.9080    0.4500    3.2420 hc        1 MOL      0.049696
     33 H13        -0.2850    0.9470    2.8290 hc        1 MOL      0.049696
     34 H14         0.4790    0.7280    5.1740 hc        1 MOL      0.061662
     35 H15        -1.0010   -0.0950    5.6320 hc        1 MOL      0.061662
     36 H16        -0.8260    2.7320    4.5580 hx        1 MOL      0.046382
     37 H17        -0.4520    2.4070    6.2400 hx        1 MOL      0.046382
     38 H18        -3.0760    1.8070    4.9230 hn        1 MOL      0.299915
     39 H19        -2.7220    1.6560    6.4570 hn        1 MOL      0.299915
     40 H20        -2.6450    3.1770    5.7710 hn        1 MOL      0.299915
     41 N4          0.8910   -2.6640    0.4200 n         1 MOL     -0.475509
     42 C13         1.4510   -1.4600   -0.2880 c3        1 MOL      0.002557
     43 C14         1.7020   -0.2320    0.5750 c         1 MOL     -0.008178
     44 O6          1.0040    0.7790    0.5430 o         1 MOL     -0.179260
     45 C15         0.6680   -1.0210   -1.5180 c3        1 MOL      0.358128
     46 C16         0.3680   -2.0150   -2.5400 c         1 MOL      0.524592
     47 O7          1.1170   -2.9930   -2.5740 o         1 MOL     -0.716222
     48 O8         -0.6580   -1.9050   -3.1750 o         1 MOL     -0.716222
     49 H21         1.2990   -3.5430    0.1290 hn        1 MOL      0.291470
     50 H22         2.4630   -1.7390   -0.5540 h1        1 MOL      0.054740
     51 H23         1.2580   -0.2190   -1.9770 hc        1 MOL     -0.007741
     52 H24        -0.2160   -0.4600   -1.2010 hc        1 MOL     -0.007741
     53 N5          2.6000   -0.3430    1.5540 n         1 MOL     -0.084815
     54 C17         3.5930   -1.4070    1.8600 c3        1 MOL     -0.021323
     55 C18         4.4230   -1.1310    3.1240 c         1 MOL      0.545805
     56 O9          4.0920   -0.2370    3.9180 o         1 MOL     -0.539844
     57 H25         2.6390    0.5060    2.1140 hn        1 MOL      0.183384
     58 H26         4.2560   -1.4450    1.0010 h1        1 MOL      0.066380
     59 H27         3.1810   -2.4040    2.0380 h1        1 MOL      0.066380
     60 N6          5.5330   -1.8280    3.3520 n         1 MOL     -0.410528
     61 C19         6.3100   -2.5450    2.3830 c3        1 MOL     -0.080450
     62 C20         7.1970   -1.7170    1.4320 c         1 MOL      0.408594
     63 O10         7.4200   -0.5140    1.5990 o         1 MOL     -0.450315
     64 C21         7.2760   -3.5380    3.1160 c3        1 MOL     -0.054678
     65 C22         8.0320   -2.8280    4.2460 c         1 MOL      0.746417
     66 O11         7.7040   -3.1260    5.3920 o         1 MOL     -0.673161
     67 O12         9.1100   -2.1820    4.0090 o         1 MOL     -0.673161
     68 H28         6.0830   -1.6310    4.1710 hn        1 MOL      0.295146
     69 H29         5.6510   -3.1110    1.7390 h1        1 MOL      0.046484
     70 H30         8.0190   -3.8660    2.3810 hc        1 MOL     -0.002913
     71 H31         6.8040   -4.4480    3.5030 hc        1 MOL     -0.002913
     72 N7          7.7570   -2.2440    0.3590 n         1 MOL     -0.224114
     73 C23         8.8100   -1.5970   -0.3820 c3        1 MOL     -0.230676
     74 C24         8.4300   -0.2730   -1.1490 c         1 MOL      0.628180
     75 O13         9.3020    0.5040   -1.4130 o         1 MOL     -0.528413
     76 H32         7.3770   -3.0600   -0.0950 hn        1 MOL      0.219853
     77 H33         9.2370   -2.2340   -1.1450 h1        1 MOL      0.127604
     78 H34         9.6560   -1.4800    0.2930 h1        1 MOL      0.127604
     79 N8          7.1020   -0.0530   -1.4410 n         1 MOL     -0.504618
     80 C25         6.5290    1.1770   -1.9900 c3        1 MOL     -0.015985
     81 C26         5.1810    1.3740   -1.3440 c         1 MOL      0.638379
     82 O14         4.2950    0.5550   -1.3350 o         1 MOL     -0.552350
     83 C27         6.3810    1.1920   -3.5540 c3        1 MOL      0.346015
     84 C28         7.7260    0.7920   -4.2120 c3        1 MOL     -0.296506
     85 O15         6.0330    2.4410   -4.1320 oh        1 MOL     -0.661946
     86 H35         6.4750   -0.7730   -1.1220 hn        1 MOL      0.237487
     87 H36         7.1980    2.0100   -1.7650 h1        1 MOL      0.134857
     88 H37         5.5850    0.5040   -3.8540 h1        1 MOL     -0.018259
     89 H38         5.7470    2.3030   -5.0410 ho        1 MOL      0.421378
     90 H39         8.0320   -0.2030   -3.8620 hc        1 MOL      0.074370
     91 H40         7.5870    0.7650   -5.2920 hc        1 MOL      0.074370
     92 H41         8.5220    1.4260   -3.8290 hc        1 MOL      0.074370
     93 N9          4.9870    2.6080   -0.8220 n         1 MOL     -0.526304
     94 C29         3.7540    3.0900    0.0060 c3        1 MOL     -0.032386
     95 C30         2.5760    3.7320   -0.8460 c         1 MOL      0.346308
     96 O16         1.8700    4.6790   -0.5340 o         1 MOL     -0.508483
     97 C31         4.2050    3.9430    1.3170 c3        1 MOL      0.069028
     98 C32         4.8430    5.2870    0.9710 c3        1 MOL      0.292364
     99 C33         5.1820    2.8940    2.0260 c3        1 MOL     -0.196063
    100 C34         5.3900    6.1180    2.1080 c3        1 MOL     -0.405563
    101 H42         5.7920    3.2300   -0.8260 hn        1 MOL      0.304753
    102 H43         3.3910    2.1700    0.4720 h1        1 MOL      0.182931
    103 H44         3.3110    4.0990    1.9240 hc        1 MOL      0.009392
    104 H45         4.0710    5.9160    0.5220 hc        1 MOL     -0.038268
    105 H46         5.5690    5.1250    0.1650 hc        1 MOL     -0.038268
    106 H47         6.0220    2.7630    1.3470 hc        1 MOL      0.050572
    107 H48         5.6010    3.4050    2.8940 hc        1 MOL      0.050572
    108 H49         4.7320    1.9220    2.1920 hc        1 MOL      0.050572
    109 H50         4.5110    6.4570    2.6530 hc        1 MOL      0.093227
    110 H51         6.0200    5.5030    2.7510 hc        1 MOL      0.093227
    111 H52         5.9470    6.9450    1.6800 hc        1 MOL      0.093227
    112 N10         2.4450    3.2550   -2.0880 n         1 MOL     -0.216304
    113 C35         1.2260    3.5530   -2.9860 c3        1 MOL      0.204496
    114 C36        -0.0020    2.7560   -2.4360 c         1 MOL      0.262105
    115 O17        -0.6790    1.9590   -3.2020 o         1 MOL     -0.484316
    116 C37         1.5930    3.1330   -4.4220 c3        1 MOL      0.220369
    117 C38         2.1300    1.7050   -4.5320 c3        1 MOL     -0.220399
    118 O18         2.6530    3.8930   -5.0960 oh        1 MOL     -0.689023
    119 H53         3.0020    2.4350   -2.2770 hn        1 MOL      0.121754
    120 H54         0.8680    4.5730   -2.8480 h1        1 MOL      0.078727
    121 H55         0.7290    3.2610   -5.0680 h1        1 MOL      0.046441
    122 H56         2.9620    3.4550   -5.8880 ho        1 MOL      0.421466
    123 H57         2.7790    1.4520   -3.6950 hc        1 MOL      0.052732
    124 H58         1.3030    1.0020   -4.4140 hc        1 MOL      0.052732
    125 H59         2.6150    1.5280   -5.5010 hc        1 MOL      0.052732
    126 N11        -0.3940    3.0470   -1.2290 n         1 MOL     -0.237389
    127 C39        -1.4960    2.4810   -0.4420 c3        1 MOL     -0.307720
    128 C40        -2.8290    2.8110   -1.1450 c         1 MOL      0.694001
    129 O19        -2.9860    3.8390   -1.8120 o         1 MOL     -0.570646
    130 C41        -1.4700    2.9450    1.0520 c3        1 MOL      0.424156
    131 C42        -1.8410    4.4020    1.2750 c3        1 MOL     -0.283036
    132 O20        -0.1530    2.9720    1.4940 oh        1 MOL     -0.603920
    133 H60         0.1560    3.7470   -0.7600 hn        1 MOL      0.270672
    134 H61        -1.4450    1.3970   -0.5150 h1        1 MOL      0.150871
    135 H62        -2.0070    2.2910    1.7400 h1        1 MOL     -0.035099
    136 H63         0.3340    2.1900    1.2100 ho        1 MOL      0.261094
    137 H64        -2.9260    4.5360    1.2440 hc        1 MOL      0.076354
    138 H65        -1.4910    4.7670    2.2480 hc        1 MOL      0.076354
    139 H66        -1.4530    4.9860    0.4500 hc        1 MOL      0.076354
    140 N12        -3.8770    2.0390   -0.8490 n         1 MOL     -0.418869
    141 C43        -5.3180    2.3600   -1.1960 c3        1 MOL     -0.070330
    142 C44        -6.2440    1.2380   -1.7450 c         1 MOL      0.691223
    143 O21        -7.1330    1.5850   -2.5090 o         1 MOL     -0.628064
    144 C45        -5.8260    3.0930    0.0800 c3        1 MOL      0.022816
    145 C46        -7.2170    3.6440   -0.1510 c3        1 MOL      0.211086
    146 C47        -7.6760    4.5370    1.0650 c3        1 MOL     -0.098086
    147 C48        -6.8490    5.8330    1.1010 c3        1 MOL     -0.036208
    148 N13        -7.2250    6.8260    0.0890 n4        1 MOL     -0.184713
    149 H67        -3.6530    1.1910   -0.3370 hn        1 MOL      0.171580
    150 H68        -5.3270    3.0290   -2.0500 h1        1 MOL      0.110516
    151 H69        -5.1310    3.9310    0.0780 hc        1 MOL     -0.012683
    152 H70        -5.7510    2.5100    1.0020 hc        1 MOL     -0.012683
    153 H71        -8.0050    2.8860   -0.1830 hc        1 MOL     -0.041672
    154 H72        -7.2990    4.2490   -1.0440 hc        1 MOL     -0.041672
    155 H73        -7.5350    4.0120    2.0060 hc        1 MOL      0.055035
    156 H74        -8.7190    4.7980    0.9280 hc        1 MOL      0.055035
    157 H75        -5.7700    5.7230    1.1160 hx        1 MOL      0.076712
    158 H76        -7.0590    6.2980    2.0610 hx        1 MOL      0.076712
    159 H77        -7.1890    6.5040   -0.8680 hn        1 MOL      0.256418
    160 H78        -8.1460    7.1420    0.3590 hn        1 MOL      0.256418
    161 H79        -6.7490    7.7060    0.2120 hn        1 MOL      0.256418
    162 N14        -6.0550   -0.0400   -1.4730 n         1 MOL     -0.317054
    163 C49        -6.7220   -1.1510   -2.1380 c3        1 MOL     -0.228915
    164 C50        -7.7790   -1.7820   -1.1800 c         1 MOL      0.478580
    165 O22        -7.5460   -1.9050    0.0810 o         1 MOL     -0.483255
    166 C51        -5.6920   -2.1650   -2.6520 c3        1 MOL     -0.037166
    167 C52        -4.8860   -3.0340   -1.6350 c3        1 MOL      0.167745
    168 C53        -3.5890   -3.5620   -2.3080 c         1 MOL      0.677796
    169 O23        -2.5560   -3.8310   -1.5950 o         1 MOL     -0.818642
    170 O24        -3.4830   -3.7130   -3.5030 o         1 MOL     -0.818642
    171 H80        -5.2520   -0.2240   -0.8830 hn        1 MOL      0.187433
    172 H81        -7.2400   -0.8490   -3.0560 h1        1 MOL      0.141480
    173 H82        -4.9250   -1.5820   -3.1480 hc        1 MOL      0.042215
    174 H83        -6.2080   -2.7970   -3.3760 hc        1 MOL      0.042215
    175 H84        -5.5960   -3.7760   -1.2880 hc        1 MOL      0.004465
    176 H85        -4.5940   -2.4280   -0.7810 hc        1 MOL      0.004465
    177 N15        -8.9530   -2.0730   -1.7260 n         1 MOL     -0.293904
    178 C54       -10.1710   -2.4250   -0.9780 c3        1 MOL     -0.160219
    179 H86       -10.5630   -3.3710   -1.3490 h1        1 MOL      0.096002
    180 H87        -9.9330   -2.5220    0.0810 h1        1 MOL      0.096002
    181 H88       -10.9190   -1.6440   -1.1130 h1        1 MOL      0.096002
    182 H89        -9.0410   -1.7840   -2.6900 hn        1 MOL      0.254455
    183 Ca1        -0.9190   -4.5130   -3.4790 Ca        1 MOL      1.766162
    184 O25         0.7560   -5.5150   -1.2790 oh        1 MOL     -0.823009
    185 H90         1.5710   -5.1870   -0.8990 ho        1 MOL      0.410600
    186 H91         0.4490   -6.1800   -0.6620 ho        1 MOL      0.410600
    187 O26         0.9060   -3.5480   -5.4810 oh        1 MOL     -0.823009
    188 H92         0.7910   -3.4560   -6.4230 ho        1 MOL      0.410600
    189 H93         1.5480   -2.8740   -5.2530 ho        1 MOL      0.410600
    190 O27         1.0210   -6.4100   -4.2850 oh        1 MOL     -0.823009
    191 H94         1.1550   -6.3930   -5.2360 ho        1 MOL      0.410600
    192 H95         1.4260   -7.2390   -4.0070 ho        1 MOL      0.410600
@<TRIPOS>BOND
     1    1    2 1   
     2    1    4 1   
     3    1    5 1   
     4    1    6 1   
     5    2    3 2   
     6    2    7 1   
     7    7    8 1   
     8    7   15 1   
     9    8    9 1   
    10    8   11 1   
    11    8   16 1   
    12    9   10 2   
    13    9   19 1   
    14   11   12 1   
    15   11   17 1   
    16   11   18 1   
    17   12   13 1   
    18   12   14 1   
    19   19   20 1   
    20   19   28 1   
    21   20   21 1   
    22   20   23 1   
    23   20   29 1   
    24   21   22 2   
    25   21   41 1   
    26   23   24 1   
    27   23   30 1   
    28   23   31 1   
    29   24   25 1   
    30   24   32 1   
    31   24   33 1   
    32   25   26 1   
    33   25   34 1   
    34   25   35 1   
    35   26   27 1   
    36   26   36 1   
    37   26   37 1   
    38   27   38 1   
    39   27   39 1   
    40   27   40 1   
    41   41   42 1   
    42   41   49 1   
    43   42   43 1   
    44   42   45 1   
    45   42   50 1   
    46   43   44 2   
    47   43   53 1   
    48   45   46 1   
    49   45   51 1   
    50   45   52 1   
    51   46   47 1   
    52   46   48 1   
    53   53   54 1   
    54   53   57 1   
    55   54   55 1   
    56   54   58 1   
    57   54   59 1   
    58   55   56 2   
    59   55   60 1   
    60   60   61 1   
    61   60   68 1   
    62   61   62 1   
    63   61   64 1   
    64   61   69 1   
    65   62   63 2   
    66   62   72 1   
    67   64   65 1   
    68   64   70 1   
    69   64   71 1   
    70   65   66 1   
    71   65   67 1   
    72   72   73 1   
    73   72   76 1   
    74   73   74 1   
    75   73   77 1   
    76   73   78 1   
    77   74   75 2   
    78   74   79 1   
    79   79   80 1   
    80   79   86 1   
    81   80   81 1   
    82   80   83 1   
    83   80   87 1   
    84   81   82 2   
    85   81   93 1   
    86   83   84 1   
    87   83   85 1   
    88   83   88 1   
    89   84   90 1   
    90   84   91 1   
    91   84   92 1   
    92   85   89 1   
    93   93   94 1   
    94   93  101 1   
    95   94   95 1   
    96   94   97 1   
    97   94  102 1   
    98   95   96 2   
    99   95  112 1   
   100   97   98 1   
   101   97   99 1   
   102   97  103 1   
   103   98  100 1   
   104   98  104 1   
   105   98  105 1   
   106   99  106 1   
   107   99  107 1   
   108   99  108 1   
   109  100  109 1   
   110  100  110 1   
   111  100  111 1   
   112  112  113 1   
   113  112  119 1   
   114  113  114 1   
   115  113  116 1   
   116  113  120 1   
   117  114  115 2   
   118  114  126 1   
   119  116  117 1   
   120  116  118 1   
   121  116  121 1   
   122  117  123 1   
   123  117  124 1   
   124  117  125 1   
   125  118  122 1   
   126  126  127 1   
   127  126  133 1   
   128  127  128 1   
   129  127  130 1   
   130  127  134 1   
   131  128  129 2   
   132  128  140 1   
   133  130  131 1   
   134  130  132 1   
   135  130  135 1   
   136  131  137 1   
   137  131  138 1   
   138  131  139 1   
   139  132  136 1   
   140  140  141 1   
   141  140  149 1   
   142  141  142 1   
   143  141  144 1   
   144  141  150 1   
   145  142  143 2   
   146  142  162 1   
   147  144  145 1   
   148  144  151 1   
   149  144  152 1   
   150  145  146 1   
   151  145  153 1   
   152  145  154 1   
   153  146  147 1   
   154  146  155 1   
   155  146  156 1   
   156  147  148 1   
   157  147  157 1   
   158  147  158 1   
   159  148  159 1   
   160  148  160 1   
   161  148  161 1   
   162  162  163 1   
   163  162  171 1   
   164  163  164 1   
   165  163  166 1   
   166  163  172 1   
   167  164  165 2   
   168  164  177 1   
   169  166  167 1   
   170  166  173 1   
   171  166  174 1   
   172  167  168 1   
   173  167  175 1   
   174  167  176 1   
   175  168  169 1   
   176  168  170 1   
   177  177  178 1   
   178  177  182 1   
   179  178  179 1   
   180  178  180 1   
   181  178  181 1   
   182  184  185 1   
   183  184  186 1   
   184  187  188 1   
   185  187  189 1   
   186  190  191 1   
   187  190  192 1   
@<TRIPOS>SUBSTRUCTURE
     1 MOL         1 TEMP              0 ****  ****    0 ROOT
