@<TRIPOS>MOLECULE
MOL
  192   187     1     0     0
SMALL
resp


@<TRIPOS>ATOM
      1 C1         -6.8960   -1.9670    5.0840 c3        1 MOL     -0.192869
      2 C2         -6.1180   -1.7900    3.7030 c         1 MOL      0.644257
      3 O1         -5.7620   -2.7820    2.9860 o         1 MOL     -0.580525
      4 H1         -7.8580   -1.4580    5.0260 hc        1 MOL      0.056883
      5 H2         -7.0570   -3.0270    5.2780 hc        1 MOL      0.056883
      6 H3         -6.3060   -1.5350    5.8920 hc        1 MOL      0.056883
      7 N1         -5.9180   -0.5670    3.2590 n         1 MOL     -0.439917
      8 C3         -5.5600   -0.1620    1.9440 c3        1 MOL      0.120185
      9 C4         -4.0520   -0.3050    1.7140 c         1 MOL      0.032124
     10 O2         -3.4630    0.4910    0.9170 o         1 MOL     -0.080481
     11 C5         -6.1200    1.2320    1.5570 c3        1 MOL     -0.094951
     12 C6         -6.2790    2.1990    2.7100 c         1 MOL      0.707946
     13 O3         -7.3540    2.2380    3.2920 o         1 MOL     -0.717261
     14 O4         -5.3130    2.9970    2.9120 o         1 MOL     -0.717261
     15 H4         -6.1470    0.1330    3.9490 hn        1 MOL      0.285048
     16 H5         -5.8780   -0.8650    1.1720 h1        1 MOL      0.066568
     17 H6         -7.0980    1.1700    1.0750 hc        1 MOL      0.017780
     18 H7         -5.4030    1.6300    0.8390 hc        1 MOL      0.017780
     19 N2         -3.4070   -1.1760    2.5030 n         1 MOL     -0.180102
     20 C7         -1.9620   -1.0930    2.6020 c3        1 MOL      0.090776
     21 C8         -1.2850   -2.3550    2.0970 c         1 MOL      0.483905
     22 O5         -1.9240   -3.3600    2.2700 o         1 MOL     -0.483110
     23 C9         -1.6180   -0.6300    3.9530 c3        1 MOL     -0.141531
     24 C10        -2.0030    0.8250    4.3090 c3        1 MOL      0.066921
     25 C11        -1.2700    1.3530    5.5240 c3        1 MOL     -0.005032
     26 C12         0.2060    1.6210    5.2950 c3        1 MOL      0.019825
     27 N3          0.4960    2.6080    4.1930 n4        1 MOL     -0.522716
     28 H8         -3.9470   -1.9250    2.9180 hn        1 MOL      0.204175
     29 H9         -1.6640   -0.4070    1.8010 h1        1 MOL      0.091983
     30 H10        -0.5340   -0.7250    3.9790 hc        1 MOL      0.052861
     31 H11        -1.8580   -1.3220    4.7570 hc        1 MOL      0.052861
     32 H12        -3.0680    0.7000    4.5040 hc        1 MOL     -0.034991
     33 H13        -1.8600    1.5110    3.4670 hc        1 MOL     -0.034991
     34 H14        -1.4140    0.7710    6.4340 hc        1 MOL      0.042117
     35 H15        -1.8340    2.2550    5.7260 hc        1 MOL      0.042117
     36 H16         0.6710    0.6980    4.9290 hx        1 MOL      0.070350
     37 H17         0.6650    1.9430    6.2300 hx        1 MOL      0.070350
     38 H18         1.4580    2.8860    4.1890 hn        1 MOL      0.373163
     39 H19         0.3020    2.0760    3.3570 hn        1 MOL      0.373163
     40 H20        -0.2230    3.3260    4.2150 hn        1 MOL      0.373163
     41 N4         -0.1360   -2.4040    1.3830 n         1 MOL     -0.365572
     42 C13         0.7760   -1.3530    0.9240 c3        1 MOL     -0.095136
     43 C14         1.2190   -0.2500    1.8570 c         1 MOL      0.551096
     44 O6          0.4000    0.6500    2.0710 o         1 MOL     -0.577449
     45 C15         0.2960   -0.6460   -0.3970 c3        1 MOL     -0.487078
     46 C16        -0.1050   -1.6310   -1.5300 c         1 MOL      0.656696
     47 O7          0.1530   -2.8420   -1.3600 o         1 MOL     -0.690144
     48 O8         -0.6330   -1.2360   -2.5720 o         1 MOL     -0.690144
     49 H21         0.1740   -3.3440    1.1950 hn        1 MOL      0.193060
     50 H22         1.6530   -1.9350    0.6670 h1        1 MOL      0.029622
     51 H23         1.1310   -0.0790   -0.8120 hc        1 MOL      0.216251
     52 H24        -0.4530    0.1230   -0.2060 hc        1 MOL      0.216251
     53 N5          2.4380   -0.3570    2.4230 n         1 MOL     -0.384982
     54 C17         3.4300   -1.3900    2.1600 c3        1 MOL     -0.173160
     55 C18         4.5650   -1.3570    3.2580 c         1 MOL      0.560040
     56 O9          4.5870   -0.6120    4.2150 o         1 MOL     -0.543995
     57 H25         2.6120    0.3820    3.0980 hn        1 MOL      0.288596
     58 H26         3.7900   -1.2910    1.1400 h1        1 MOL      0.169537
     59 H27         2.9540   -2.3700    2.2180 h1        1 MOL      0.169537
     60 N6          5.5350   -2.2580    3.2150 n         1 MOL     -0.346465
     61 C19         5.7520   -3.3440    2.1940 c3        1 MOL     -0.231322
     62 C20         6.8330   -2.9850    1.1210 c         1 MOL      0.564040
     63 O10         7.7270   -2.1950    1.4220 o         1 MOL     -0.421865
     64 C21         5.9290   -4.7050    2.7990 c3        1 MOL     -0.088158
     65 C22         7.1450   -4.8160    3.6530 c         1 MOL      0.757193
     66 O11         7.9320   -5.7330    3.3550 o         1 MOL     -0.649667
     67 O12         7.2210   -4.2220    4.7260 o         1 MOL     -0.649667
     68 H28         6.1570   -2.3390    4.0140 hn        1 MOL      0.304872
     69 H29         4.8530   -3.4140    1.5710 h1        1 MOL      0.032292
     70 H30         5.9490   -5.4380    1.9860 hc        1 MOL      0.021383
     71 H31         5.0670   -4.8840    3.4500 hc        1 MOL      0.021383
     72 N7          6.5920   -3.4920   -0.1530 n         1 MOL     -0.375874
     73 C23         7.1870   -3.0450   -1.3450 c3        1 MOL     -0.218852
     74 C24         6.9110   -1.5900   -1.8060 c         1 MOL      0.498358
     75 O13         7.8330   -0.7560   -1.9430 o         1 MOL     -0.511121
     76 H32         5.8270   -4.1340   -0.2830 hn        1 MOL      0.248649
     77 H33         7.0090   -3.6750   -2.2200 h1        1 MOL      0.127993
     78 H34         8.2660   -3.0950   -1.2120 h1        1 MOL      0.127993
     79 N8          5.6340   -1.2680   -1.9890 n         1 MOL     -0.388000
     80 C25         5.1830    0.0970   -2.3020 c3        1 MOL     -0.036470
     81 C26         5.4510    1.1280   -1.1890 c         1 MOL      0.462590
     82 O14         5.2820    0.8400    0.0530 o         1 MOL     -0.430768
     83 C27         3.7130    0.1910   -2.7370 c3        1 MOL      0.323707
     84 C28         3.5780   -0.7590   -3.9540 c3        1 MOL     -0.129861
     85 O15         3.2930    1.4570   -3.2110 oh        1 MOL     -0.693169
     86 H35         4.9380   -2.0010   -2.0210 hn        1 MOL      0.214244
     87 H36         5.7960    0.2920   -3.1810 h1        1 MOL      0.104976
     88 H37         3.0190   -0.1000   -1.9590 h1        1 MOL      0.000111
     89 H38         2.3340    1.4600   -3.2160 ho        1 MOL      0.467705
     90 H39         3.3560   -1.7640   -3.6020 hc        1 MOL      0.037870
     91 H40         2.6500   -0.3550   -4.3490 hc        1 MOL      0.037870
     92 H41         4.4190   -0.7600   -4.6520 hc        1 MOL      0.037870
     93 N9          5.8310    2.2910   -1.6080 n         1 MOL     -0.398217
     94 C29         5.9500    3.4010   -0.6740 c3        1 MOL     -0.062199
     95 C30         4.6260    3.7350   -0.0260 c         1 MOL      0.462104
     96 O16         4.5070    4.0050    1.1930 o         1 MOL     -0.534613
     97 C31         6.6160    4.5810   -1.3810 c3        1 MOL      0.235118
     98 C32         7.9770    4.2240   -2.0880 c3        1 MOL      0.138416
     99 C33         6.9630    5.6570   -0.2810 c3        1 MOL     -0.353339
    100 C34         8.1200    5.2280   -3.2990 c3        1 MOL     -0.366187
    101 H42         5.9780    2.4910   -2.5830 hn        1 MOL      0.283612
    102 H43         6.5500    3.0840    0.1760 h1        1 MOL      0.108694
    103 H44         5.8870    4.9840   -2.0860 hc        1 MOL     -0.016820
    104 H45         8.0830    3.2270   -2.5250 hc        1 MOL      0.000691
    105 H46         8.7660    4.2220   -1.3410 hc        1 MOL      0.000691
    106 H47         6.0920    6.2890   -0.1200 hc        1 MOL      0.090422
    107 H48         7.1340    5.1450    0.6620 hc        1 MOL      0.090422
    108 H49         7.8680    6.2230   -0.5350 hc        1 MOL      0.090422
    109 H50         7.2660    5.2460   -3.9730 hc        1 MOL      0.086036
    110 H51         8.4800    6.1660   -2.8930 hc        1 MOL      0.086036
    111 H52         8.8870    4.7980   -3.9410 hc        1 MOL      0.086036
    112 N10         3.4780    3.7050   -0.7080 n         1 MOL     -0.449492
    113 C35         2.1310    4.1520   -0.2330 c3        1 MOL      0.254923
    114 C36         0.9110    3.3800   -0.6500 c         1 MOL      0.412906
    115 O17         1.0120    2.4980   -1.4970 o         1 MOL     -0.503812
    116 C37         1.8780    5.6330   -0.7190 c3        1 MOL      0.259626
    117 C38         2.3120    5.9310   -2.1490 c3        1 MOL     -0.153024
    118 O18         2.7070    6.4720   -0.0120 oh        1 MOL     -0.566296
    119 H53         3.5260    3.4690   -1.6910 hn        1 MOL      0.257027
    120 H54         2.0970    4.0890    0.8570 h1        1 MOL     -0.001715
    121 H55         0.8240    5.8830   -0.5430 h1        1 MOL     -0.008206
    122 H56         2.5990    6.1850    0.8940 ho        1 MOL      0.348086
    123 H57         1.6680    5.4570   -2.8890 hc        1 MOL      0.050970
    124 H58         2.1890    6.9870   -2.3920 hc        1 MOL      0.050970
    125 H59         3.3350    5.6420   -2.3900 hc        1 MOL      0.050970
    126 N11        -0.2450    3.7480   -0.0960 n         1 MOL     -0.470953
    127 C39        -1.4450    2.9640    0.0150 c3        1 MOL      0.046609
    128 C40        -2.1990    2.7910   -1.3170 c         1 MOL      0.472510
    129 O19        -1.9450    3.5490   -2.2840 o         1 MOL     -0.524457
    130 C41        -2.3230    3.5550    1.0980 c3        1 MOL      0.141429
    131 C42        -2.7740    4.9640    0.7480 c3        1 MOL     -0.479851
    132 O20        -1.6820    3.7160    2.3640 oh        1 MOL     -0.684562
    133 H60        -0.2620    4.5950    0.4580 hn        1 MOL      0.278320
    134 H61        -1.1000    1.9740    0.3120 h1        1 MOL      0.169426
    135 H62        -3.1950    2.9190    1.2580 h1        1 MOL      0.148230
    136 H63        -2.3860    3.8110    3.0060 ho        1 MOL      0.438834
    137 H64        -3.0560    5.5020    1.6530 hc        1 MOL      0.132993
    138 H65        -1.9640    5.4930    0.2460 hc        1 MOL      0.132993
    139 H66        -3.6220    4.9820    0.0540 hc        1 MOL      0.132993
    140 N12        -3.1400    1.8560   -1.4060 n         1 MOL     -0.159884
    141 C43        -4.0180    1.4780   -2.5970 c3        1 MOL     -0.136301
    142 C44        -4.6810    0.1040   -2.5730 c         1 MOL      0.415120
    143 O21        -5.4720   -0.1930   -3.4520 o         1 MOL     -0.523226
    144 C45        -4.9630    2.6170   -2.9060 c3        1 MOL     -0.077653
    145 C46        -5.9780    2.7840   -1.7630 c3        1 MOL      0.093182
    146 C47        -6.9810    3.9540   -1.8940 c3        1 MOL     -0.129300
    147 C48        -6.3150    5.3510   -2.0660 c3        1 MOL      0.109355
    148 N13        -7.1720    6.5190   -2.0830 n4        1 MOL     -0.417891
    149 H67        -3.3670    1.3790   -0.5480 hn        1 MOL     -0.189643
    150 H68        -3.4030    1.4650   -3.5010 h1        1 MOL      0.158961
    151 H69        -5.4560    2.4440   -3.8630 hc        1 MOL      0.039103
    152 H70        -4.3750    3.5370   -2.9930 hc        1 MOL      0.039103
    153 H71        -5.4330    2.9780   -0.8380 hc        1 MOL      0.023133
    154 H72        -6.5790    1.8870   -1.6390 hc        1 MOL      0.023133
    155 H73        -7.6650    3.9790   -1.0510 hc        1 MOL      0.054855
    156 H74        -7.6150    3.7570   -2.7570 hc        1 MOL      0.054855
    157 H75        -5.5760    5.3280   -2.8640 hx        1 MOL      0.060568
    158 H76        -5.8150    5.4680   -1.0990 hx        1 MOL      0.060568
    159 H77        -7.4890    6.7400   -1.1560 hn        1 MOL      0.341636
    160 H78        -6.7030    7.3160   -2.4950 hn        1 MOL      0.341636
    161 H79        -8.0530    6.3070   -2.5340 hn        1 MOL      0.341636
    162 N14        -4.3610   -0.7220   -1.5950 n         1 MOL      0.189840
    163 C49        -4.7890   -2.1220   -1.6370 c3        1 MOL     -0.502764
    164 C50        -6.3190   -2.4770   -1.4440 c         1 MOL      0.556542
    165 O22        -7.0630   -1.7530   -0.7620 o         1 MOL     -0.474953
    166 C51        -3.9210   -2.8290   -0.5830 c3        1 MOL      0.284603
    167 C52        -3.9300   -4.4200   -0.6900 c3        1 MOL     -0.512752
    168 C53        -3.7690   -4.9390   -2.0920 c         1 MOL      0.750860
    169 O23        -2.5880   -5.1650   -2.4910 o         1 MOL     -0.739652
    170 O24        -4.7590   -5.3410   -2.7420 o         1 MOL     -0.739652
    171 H80        -3.8740   -0.4280   -0.7690 hn        1 MOL      0.055507
    172 H81        -4.5190   -2.4230   -2.6440 h1        1 MOL      0.166866
    173 H82        -4.2640   -2.5740    0.4160 hc        1 MOL      0.013993
    174 H83        -2.8840   -2.5850   -0.7790 hc        1 MOL      0.013993
    175 H84        -4.8830   -4.7720   -0.2830 hc        1 MOL      0.128403
    176 H85        -3.2010   -4.8390   -0.0040 hc        1 MOL      0.128403
    177 N15        -6.9630   -3.5320   -2.0900 n         1 MOL     -0.427107
    178 C54        -8.4070   -3.7310   -2.0740 c3        1 MOL     -0.049022
    179 H86        -8.8720   -3.0710   -2.8060 h1        1 MOL      0.057381
    180 H87        -8.6340   -4.7680   -2.3240 h1        1 MOL      0.057381
    181 H88        -8.7950   -3.5030   -1.0820 h1        1 MOL      0.057381
    182 H89        -6.3710   -4.1390   -2.6330 hn        1 MOL      0.406020
    183 Ca1         0.0040   -5.1770   -2.3560 Ca        1 MOL      1.569425
    184 O25        -0.7850   -3.5940   -4.2680 oh        1 MOL     -0.794953
    185 H90        -1.6710   -3.9220   -4.4110 ho        1 MOL      0.399874
    186 H91        -0.8910   -2.6460   -4.1820 ho        1 MOL      0.399874
    187 O26         1.9490   -4.7910   -4.2030 oh        1 MOL     -0.794953
    188 H92         2.8840   -4.7340   -4.0080 ho        1 MOL      0.399874
    189 H93         1.8290   -4.2270   -4.9670 ho        1 MOL      0.399874
    190 O27        -0.6750   -6.7470   -4.9950 oh        1 MOL     -0.794953
    191 H94        -1.0570   -7.3850   -4.3860 ho        1 MOL      0.399874
    192 H95        -1.0180   -7.0010   -5.8520 ho        1 MOL      0.399874
@<TRIPOS>BOND
     1    1    2 1   
     2    1    4 1   
     3    1    5 1   
     4    1    6 1   
     5    2    3 2   
     6    2    7 1   
     7    7    8 1   
     8    7   15 1   
     9    8    9 1   
    10    8   11 1   
    11    8   16 1   
    12    9   10 2   
    13    9   19 1   
    14   11   12 1   
    15   11   17 1   
    16   11   18 1   
    17   12   13 1   
    18   12   14 1   
    19   19   20 1   
    20   19   28 1   
    21   20   21 1   
    22   20   23 1   
    23   20   29 1   
    24   21   22 2   
    25   21   41 1   
    26   23   24 1   
    27   23   30 1   
    28   23   31 1   
    29   24   25 1   
    30   24   32 1   
    31   24   33 1   
    32   25   26 1   
    33   25   34 1   
    34   25   35 1   
    35   26   27 1   
    36   26   36 1   
    37   26   37 1   
    38   27   38 1   
    39   27   39 1   
    40   27   40 1   
    41   41   42 1   
    42   41   49 1   
    43   42   43 1   
    44   42   45 1   
    45   42   50 1   
    46   43   44 2   
    47   43   53 1   
    48   45   46 1   
    49   45   51 1   
    50   45   52 1   
    51   46   47 1   
    52   46   48 1   
    53   53   54 1   
    54   53   57 1   
    55   54   55 1   
    56   54   58 1   
    57   54   59 1   
    58   55   56 2   
    59   55   60 1   
    60   60   61 1   
    61   60   68 1   
    62   61   62 1   
    63   61   64 1   
    64   61   69 1   
    65   62   63 2   
    66   62   72 1   
    67   64   65 1   
    68   64   70 1   
    69   64   71 1   
    70   65   66 1   
    71   65   67 1   
    72   72   73 1   
    73   72   76 1   
    74   73   74 1   
    75   73   77 1   
    76   73   78 1   
    77   74   75 2   
    78   74   79 1   
    79   79   80 1   
    80   79   86 1   
    81   80   81 1   
    82   80   83 1   
    83   80   87 1   
    84   81   82 2   
    85   81   93 1   
    86   83   84 1   
    87   83   85 1   
    88   83   88 1   
    89   84   90 1   
    90   84   91 1   
    91   84   92 1   
    92   85   89 1   
    93   93   94 1   
    94   93  101 1   
    95   94   95 1   
    96   94   97 1   
    97   94  102 1   
    98   95   96 2   
    99   95  112 1   
   100   97   98 1   
   101   97   99 1   
   102   97  103 1   
   103   98  100 1   
   104   98  104 1   
   105   98  105 1   
   106   99  106 1   
   107   99  107 1   
   108   99  108 1   
   109  100  109 1   
   110  100  110 1   
   111  100  111 1   
   112  112  113 1   
   113  112  119 1   
   114  113  114 1   
   115  113  116 1   
   116  113  120 1   
   117  114  115 2   
   118  114  126 1   
   119  116  117 1   
   120  116  118 1   
   121  116  121 1   
   122  117  123 1   
   123  117  124 1   
   124  117  125 1   
   125  118  122 1   
   126  126  127 1   
   127  126  133 1   
   128  127  128 1   
   129  127  130 1   
   130  127  134 1   
   131  128  129 2   
   132  128  140 1   
   133  130  131 1   
   134  130  132 1   
   135  130  135 1   
   136  131  137 1   
   137  131  138 1   
   138  131  139 1   
   139  132  136 1   
   140  140  141 1   
   141  140  149 1   
   142  141  142 1   
   143  141  144 1   
   144  141  150 1   
   145  142  143 2   
   146  142  162 1   
   147  144  145 1   
   148  144  151 1   
   149  144  152 1   
   150  145  146 1   
   151  145  153 1   
   152  145  154 1   
   153  146  147 1   
   154  146  155 1   
   155  146  156 1   
   156  147  148 1   
   157  147  157 1   
   158  147  158 1   
   159  148  159 1   
   160  148  160 1   
   161  148  161 1   
   162  162  163 1   
   163  162  171 1   
   164  163  164 1   
   165  163  166 1   
   166  163  172 1   
   167  164  165 2   
   168  164  177 1   
   169  166  167 1   
   170  166  173 1   
   171  166  174 1   
   172  167  168 1   
   173  167  175 1   
   174  167  176 1   
   175  168  169 1   
   176  168  170 1   
   177  177  178 1   
   178  177  182 1   
   179  178  179 1   
   180  178  180 1   
   181  178  181 1   
   182  184  185 1   
   183  184  186 1   
   184  187  188 1   
   185  187  189 1   
   186  190  191 1   
   187  190  192 1   
@<TRIPOS>SUBSTRUCTURE
     1 MOL         1 TEMP              0 ****  ****    0 ROOT
