@<TRIPOS>MOLECULE
MOL
  181   177     1     0     0
SMALL
resp


@<TRIPOS>ATOM
      1 C1          3.4590   -1.9440    4.2690 c3        1 MOL     -0.321242
      2 C2          4.6260   -1.1140    3.6770 c         1 MOL      0.646637
      3 O1          4.6670    0.1510    3.6720 o         1 MOL     -0.637484
      4 H1          3.1040   -1.4710    5.1840 hc        1 MOL      0.081883
      5 H2          2.6450   -1.9930    3.5470 hc        1 MOL      0.081883
      6 H3          3.8070   -2.9530    4.4940 hc        1 MOL      0.081883
      7 N1          5.6360   -1.8320    3.2820 n         1 MOL     -0.542364
      8 C3          6.8870   -1.1800    2.7400 c3        1 MOL      0.428208
      9 C4          6.9030   -1.2000    1.1930 c         1 MOL      0.376450
     10 O2          6.1170   -1.8930    0.5400 o         1 MOL     -0.510060
     11 C5          8.1280   -1.8980    3.1930 c3        1 MOL     -0.319243
     12 C6          8.1890   -3.4260    2.9970 c         1 MOL      0.733784
     13 O3          9.2480   -3.8920    2.5700 o         1 MOL     -0.708662
     14 O4          7.1800   -4.1160    3.1910 o         1 MOL     -0.708662
     15 H4          5.5500   -2.8430    3.2420 hn        1 MOL      0.287758
     16 H5          6.9200   -0.1550    3.0970 h1        1 MOL     -0.028482
     17 H6          8.0950   -1.6170    4.2480 hc        1 MOL      0.021764
     18 H7          8.9530   -1.4260    2.6510 hc        1 MOL      0.021764
     19 N2          7.7750   -0.3840    0.6560 n         1 MOL     -0.278017
     20 C7          7.7700   -0.0070   -0.7810 c3        1 MOL     -0.067325
     21 C8          6.4820    0.6570   -1.2220 c         1 MOL      0.515317
     22 O5          6.1770    1.7580   -0.7690 o         1 MOL     -0.554960
     23 C9          8.9400    0.8560   -1.1530 c3        1 MOL     -0.149226
     24 H8          8.2620    0.1880    1.3180 hn        1 MOL      0.255327
     25 H9          7.7730   -0.9610   -1.3180 h1        1 MOL      0.095882
     26 H10         9.9180    0.4830   -0.8700 hc        1 MOL      0.060704
     27 H11         8.9370    1.0280   -2.2310 hc        1 MOL      0.060704
     28 H12         8.9980    1.8300   -0.6610 hc        1 MOL      0.060704
     29 N3          5.7650    0.1010   -2.2040 n         1 MOL     -0.311644
     30 C10         4.5170    0.6360   -2.8750 c3        1 MOL     -0.292223
     31 C11         4.7870    1.9640   -3.6750 c         1 MOL      0.590723
     32 O6          5.9150    2.1430   -4.2230 o         1 MOL     -0.532272
     33 C12         3.9600   -0.3580   -3.8490 c3        1 MOL     -0.098799
     34 C13         3.7350   -1.7860   -3.2010 c         1 MOL      0.774204
     35 O7          4.7580   -2.4940   -3.1770 o         1 MOL     -0.754565
     36 O8          2.5680   -2.1590   -2.8230 o         1 MOL     -0.754565
     37 H13         6.2620   -0.7080   -2.5430 hn        1 MOL      0.291005
     38 H14         3.7730    0.8090   -2.0940 h1        1 MOL      0.149381
     39 H15         4.7000   -0.5530   -4.6270 hc        1 MOL      0.042068
     40 H16         3.0650    0.0090   -4.3440 hc        1 MOL      0.042068
     41 N4          3.8240    2.8330   -3.8890 n         1 MOL     -0.271418
     42 C14         3.8310    4.0400   -4.7380 c3        1 MOL     -0.209698
     43 C15         2.9290    5.1890   -4.3740 c         1 MOL      0.625657
     44 O9          3.2470    6.3340   -4.7110 o         1 MOL     -0.568183
     45 H17         2.9670    2.7320   -3.3580 hn        1 MOL      0.237029
     46 H18         3.6870    3.6800   -5.7640 h1        1 MOL      0.113917
     47 H19         4.8800    4.3220   -4.6380 h1        1 MOL      0.113917
     48 N5          1.8250    5.1090   -3.6240 n         1 MOL     -0.467836
     49 C16         1.1640    6.1460   -2.8420 c3        1 MOL      0.243481
     50 C17         0.8040    5.6390   -1.4550 c         1 MOL      0.402566
     51 O10         0.6610    4.4180   -1.2870 o         1 MOL     -0.433558
     52 C18        -0.0780    6.8160   -3.5940 c3        1 MOL     -0.327685
     53 C19        -1.2140    5.9410   -4.0430 c         1 MOL      0.686094
     54 N6         -0.9630    5.1240   -5.0270 n         1 MOL     -0.731011
     55 O11        -2.3780    6.0580   -3.6680 o         1 MOL     -0.563623
     56 H20         1.5220    4.1940   -3.3300 hn        1 MOL      0.239167
     57 H21         1.8150    7.0020   -2.6710 h1        1 MOL      0.032220
     58 H22         0.2940    7.3170   -4.4880 hc        1 MOL      0.079917
     59 H23        -0.5410    7.5220   -2.9080 hc        1 MOL      0.079917
     60 H24        -0.0490    5.1860   -5.4630 hn        1 MOL      0.340820
     61 H25        -1.7860    4.7570   -5.4800 hn        1 MOL      0.340820
     62 N7          0.7300    6.4980   -0.4750 n         1 MOL     -0.349387
     63 C20         0.5850    6.3290    0.9510 c3        1 MOL     -0.213167
     64 C21        -0.8360    6.0080    1.3880 c         1 MOL      0.587442
     65 O12        -1.6740    5.4600    0.6850 o         1 MOL     -0.442904
     66 H26         0.9080    7.4680   -0.7320 hn        1 MOL      0.280032
     67 H27         0.8830    7.3040    1.3520 h1        1 MOL      0.125893
     68 H28         1.2470    5.5570    1.3640 h1        1 MOL      0.125893
     69 N8         -1.1300    6.3880    2.6480 n         1 MOL     -0.435138
     70 C22        -2.5430    6.2220    3.1540 c3        1 MOL     -0.289846
     71 C23        -2.9900    4.8010    3.3120 c         1 MOL      0.526205
     72 O13        -4.1960    4.5680    3.2650 o         1 MOL     -0.562177
     73 C24        -2.8060    7.0680    4.4180 c3        1 MOL      0.516518
     74 C25        -1.9300    6.7090    5.5830 c3        1 MOL     -0.431199
     75 O14        -2.6340    8.4460    4.1880 oh        1 MOL     -0.646455
     76 H29        -0.4000    6.9110    3.1160 hn        1 MOL      0.255269
     77 H30        -3.2070    6.6890    2.4310 h1        1 MOL      0.165528
     78 H31        -3.8410    6.9900    4.7380 h1        1 MOL      0.036370
     79 H32        -1.6920    8.6070    4.2720 ho        1 MOL      0.387600
     80 H33        -1.8560    5.6290    5.7590 hc        1 MOL      0.096671
     81 H34        -1.0140    7.2430    5.3290 hc        1 MOL      0.096671
     82 H35        -2.3370    7.0670    6.5240 hc        1 MOL      0.096671
     83 N9         -2.1180    3.8540    3.6480 n         1 MOL     -0.251791
     84 C26        -2.3520    2.4350    3.6510 c3        1 MOL      0.050419
     85 C27        -1.6500    1.6560    2.5490 c         1 MOL      0.549647
     86 O15        -0.5470    1.9780    2.1190 o         1 MOL     -0.518610
     87 C28        -2.1210    1.8520    5.0480 c3        1 MOL      0.124294
     88 C29        -3.0870    2.4360    6.1540 c3        1 MOL      0.110595
     89 C30        -2.3170    0.2900    5.0170 c3        1 MOL     -0.103073
     90 C31        -4.5660    2.1820    6.0420 c3        1 MOL     -0.161299
     91 H36        -1.1310    4.0770    3.7070 hn        1 MOL      0.182995
     92 H37        -3.4270    2.3080    3.5130 h1        1 MOL      0.065993
     93 H38        -1.0900    2.1160    5.3010 hc        1 MOL     -0.011273
     94 H39        -2.7960    3.4790    6.2580 hc        1 MOL     -0.038152
     95 H40        -2.6360    1.9670    7.0320 hc        1 MOL     -0.038152
     96 H41        -2.2450   -0.1430    6.0120 hc        1 MOL      0.012100
     97 H42        -3.3430    0.1300    4.6870 hc        1 MOL      0.012100
     98 H43        -1.5150   -0.1930    4.4650 hc        1 MOL      0.012100
     99 H44        -5.0380    2.7500    6.8500 hc        1 MOL      0.036526
    100 H45        -4.9380    2.4640    5.0600 hc        1 MOL      0.036526
    101 H46        -4.8680    1.1610    6.2290 hc        1 MOL      0.036526
    102 N10        -2.3730    0.6780    2.0800 n         1 MOL     -0.640049
    103 C32        -1.8050   -0.3160    1.1160 c3        1 MOL      0.415300
    104 C33        -2.7740   -0.8600    0.0880 c         1 MOL      0.533152
    105 O16        -2.6990   -1.9350   -0.4720 o         1 MOL     -0.497388
    106 C34        -1.0210   -1.3930    1.8480 c3        1 MOL     -0.283011
    107 C35         0.0780   -2.0170    0.9300 c         1 MOL      0.666385
    108 O17         0.5620   -3.0960    1.2440 o         1 MOL     -0.729545
    109 O18         0.3620   -1.6140   -0.1650 o         1 MOL     -0.729545
    110 H47        -3.3370    0.5510    2.3670 hn        1 MOL      0.296711
    111 H48        -1.0860    0.1870    0.4630 h1        1 MOL      0.014327
    112 H49        -1.6120   -2.2470    2.1950 hc        1 MOL      0.081441
    113 H50        -0.4600   -0.8910    2.6340 hc        1 MOL      0.081441
    114 N11        -3.7580   -0.0340   -0.2040 n         1 MOL     -0.566390
    115 C36        -4.7570   -0.3530   -1.2300 c3        1 MOL      0.309925
    116 C37        -5.4020   -1.7260   -0.9030 c         1 MOL      0.177945
    117 O19        -5.9030   -1.8180    0.2170 o         1 MOL     -0.513342
    118 C38        -5.7970    0.7280   -1.3240 c3        1 MOL     -0.207321
    119 C39        -6.7820    0.3550   -2.4320 ca        1 MOL      0.034522
    120 C40        -6.5780    0.7090   -3.7650 ca        1 MOL     -0.126893
    121 C41        -7.8580   -0.5100   -2.1590 ca        1 MOL     -0.126893
    122 C42        -7.4550    0.3330   -4.7760 ca        1 MOL     -0.155283
    123 C43        -8.7420   -0.9560   -3.1910 ca        1 MOL     -0.155283
    124 C44        -8.5390   -0.4770   -4.4830 ca        1 MOL     -0.064684
    125 H51        -3.6790    0.9110    0.1620 hn        1 MOL      0.279707
    126 H52        -4.2230   -0.4820   -2.1690 h1        1 MOL     -0.003046
    127 H53        -5.4190    1.7420   -1.5000 hc        1 MOL      0.097743
    128 H54        -6.2480    0.8170   -0.3370 hc        1 MOL      0.097743
    129 H55        -5.7000    1.3160   -3.9640 ha        1 MOL      0.119085
    130 H56        -7.9700   -0.9250   -1.1720 ha        1 MOL      0.119085
    131 H57        -7.4200    0.8500   -5.7190 ha        1 MOL      0.115649
    132 H58        -9.4640   -1.7320   -2.9560 ha        1 MOL      0.115649
    133 H59        -9.3050   -0.6480   -5.2140 ha        1 MOL      0.085963
    134 N12        -5.3440   -2.7500   -1.8300 n         1 MOL      0.173820
    135 C45        -6.0620   -4.0160   -1.6610 c3        1 MOL     -0.079772
    136 C46        -5.5310   -4.9670   -0.5440 c         1 MOL      0.244184
    137 O20        -6.1520   -5.9500   -0.1100 o         1 MOL     -0.481212
    138 C47        -5.9550   -4.7450   -3.0050 c3        1 MOL     -0.089838
    139 C48        -5.7130   -3.5520   -3.9620 c3        1 MOL     -0.176378
    140 C49        -4.8210   -2.6190   -3.2180 c3        1 MOL      0.266177
    141 H60        -7.0990   -3.7570   -1.4550 h1        1 MOL      0.094257
    142 H61        -5.1220   -5.4310   -3.1740 hc        1 MOL      0.068399
    143 H62        -6.8880   -5.2470   -3.2690 hc        1 MOL      0.068399
    144 H63        -5.1910   -3.8890   -4.8600 hc        1 MOL      0.033371
    145 H64        -6.6380   -3.0070   -4.1510 hc        1 MOL      0.033371
    146 H65        -3.7690   -2.9180   -3.2120 h1        1 MOL     -0.050334
    147 H66        -4.9000   -1.6020   -3.6000 h1        1 MOL     -0.050334
    148 N13        -4.2760   -4.7090   -0.0660 n         1 MOL     -0.024402
    149 C50        -3.5410   -5.5770    0.8310 c3        1 MOL     -0.409129
    150 C51        -3.8800   -5.4780    2.3010 c         1 MOL      0.594810
    151 O21        -4.1980   -6.4200    2.9750 o         1 MOL     -0.551293
    152 C52        -2.0460   -5.3910    0.5170 c3        1 MOL      0.254776
    153 C53        -1.7300   -5.7970   -0.9090 c3        1 MOL     -0.242202
    154 C54        -0.2550   -5.3830   -1.2210 c         1 MOL      0.706756
    155 O22         0.0560   -4.4740   -2.0540 o         1 MOL     -0.727693
    156 O23         0.6410   -5.7820   -0.5070 o         1 MOL     -0.727693
    157 H67        -3.7130   -3.9810   -0.4690 hn        1 MOL      0.215537
    158 H68        -3.7340   -6.6090    0.5250 h1        1 MOL      0.149453
    159 H69        -1.4100   -5.9000    1.2330 hc        1 MOL     -0.000587
    160 H70        -1.7440   -4.3410    0.5900 hc        1 MOL     -0.000587
    161 H71        -2.4500   -5.2510   -1.5200 hc        1 MOL      0.023658
    162 H72        -1.7820   -6.8710   -1.1080 hc        1 MOL      0.023658
    163 N14        -3.9040   -4.2440    2.7820 n         1 MOL     -0.225278
    164 C55        -4.1350   -4.0710    4.1940 c3        1 MOL     -0.250077
    165 H73        -3.1850   -3.8880    4.6980 h1        1 MOL      0.098693
    166 H74        -4.7990   -3.2210    4.3530 h1        1 MOL      0.098693
    167 H75        -4.5940   -4.9720    4.6010 h1        1 MOL      0.098693
    168 H76        -3.5740   -3.4950    2.1910 hn        1 MOL      0.190128
    169 Ca1         2.1740   -3.4660   -0.7970 Ca        1 MOL      1.762013
    170 O24         3.1870   -4.8380    1.3900 oh        1 MOL     -0.824756
    171 H77         2.9030   -4.7900    2.2930 ho        1 MOL      0.402139
    172 H78         4.1270   -5.0250    1.4340 ho        1 MOL      0.402139
    173 O25         3.5010   -1.6270    0.7040 oh        1 MOL     -0.824756
    174 H79         4.4520   -1.5470    0.7390 ho        1 MOL      0.402139
    175 H80         3.1710   -0.8360    1.1290 ho        1 MOL      0.402139
    176 O26         4.9070   -3.7970   -0.9860 oh        1 MOL     -0.824756
    177 H81         4.9370   -3.2740   -1.7870 ho        1 MOL      0.402139
    178 H82         5.5330   -3.3780   -0.4040 ho        1 MOL      0.402139
    179 O27         3.0660   -5.1940   -2.9210 oh        1 MOL     -0.824756
    180 H83         3.9660   -4.9010   -3.0780 ho        1 MOL      0.402139
    181 H84         2.7120   -5.3640   -3.7910 ho        1 MOL      0.402139
@<TRIPOS>BOND
     1    1    2 1   
     2    1    4 1   
     3    1    5 1   
     4    1    6 1   
     5    2    3 2   
     6    2    7 1   
     7    7    8 1   
     8    7   15 1   
     9    8    9 1   
    10    8   11 1   
    11    8   16 1   
    12    9   10 2   
    13    9   19 1   
    14   11   12 1   
    15   11   17 1   
    16   11   18 1   
    17   12   13 1   
    18   12   14 1   
    19   19   20 1   
    20   19   24 1   
    21   20   21 1   
    22   20   23 1   
    23   20   25 1   
    24   21   22 2   
    25   21   29 1   
    26   23   26 1   
    27   23   27 1   
    28   23   28 1   
    29   29   30 1   
    30   29   37 1   
    31   30   31 1   
    32   30   33 1   
    33   30   38 1   
    34   31   32 2   
    35   31   41 1   
    36   33   34 1   
    37   33   39 1   
    38   33   40 1   
    39   34   35 1   
    40   34   36 1   
    41   41   42 1   
    42   41   45 1   
    43   42   43 1   
    44   42   46 1   
    45   42   47 1   
    46   43   44 2   
    47   43   48 1   
    48   48   49 1   
    49   48   56 1   
    50   49   50 1   
    51   49   52 1   
    52   49   57 1   
    53   50   51 2   
    54   50   62 1   
    55   52   53 1   
    56   52   58 1   
    57   52   59 1   
    58   53   54 1   
    59   53   55 2   
    60   54   60 1   
    61   54   61 1   
    62   62   63 1   
    63   62   66 1   
    64   63   64 1   
    65   63   67 1   
    66   63   68 1   
    67   64   65 2   
    68   64   69 1   
    69   69   70 1   
    70   69   76 1   
    71   70   71 1   
    72   70   73 1   
    73   70   77 1   
    74   71   72 2   
    75   71   83 1   
    76   73   74 1   
    77   73   75 1   
    78   73   78 1   
    79   74   80 1   
    80   74   81 1   
    81   74   82 1   
    82   75   79 1   
    83   83   84 1   
    84   83   91 1   
    85   84   85 1   
    86   84   87 1   
    87   84   92 1   
    88   85   86 2   
    89   85  102 1   
    90   87   88 1   
    91   87   89 1   
    92   87   93 1   
    93   88   90 1   
    94   88   94 1   
    95   88   95 1   
    96   89   96 1   
    97   89   97 1   
    98   89   98 1   
    99   90   99 1   
   100   90  100 1   
   101   90  101 1   
   102  102  103 1   
   103  102  110 1   
   104  103  104 1   
   105  103  106 1   
   106  103  111 1   
   107  104  105 2   
   108  104  114 1   
   109  106  107 1   
   110  106  112 1   
   111  106  113 1   
   112  107  108 1   
   113  107  109 1   
   114  114  115 1   
   115  114  125 1   
   116  115  116 1   
   117  115  118 1   
   118  115  126 1   
   119  116  117 2   
   120  116  134 1   
   121  118  119 1   
   122  118  127 1   
   123  118  128 1   
   124  119  120 ar  
   125  119  121 ar  
   126  120  122 ar  
   127  120  129 1   
   128  121  123 ar  
   129  121  130 1   
   130  122  124 ar  
   131  122  131 1   
   132  123  124 ar  
   133  123  132 1   
   134  124  133 1   
   135  134  135 1   
   136  134  140 1   
   137  135  136 1   
   138  135  138 1   
   139  135  141 1   
   140  136  137 2   
   141  136  148 1   
   142  138  139 1   
   143  138  142 1   
   144  138  143 1   
   145  139  140 1   
   146  139  144 1   
   147  139  145 1   
   148  140  146 1   
   149  140  147 1   
   150  148  149 1   
   151  148  157 1   
   152  149  150 1   
   153  149  152 1   
   154  149  158 1   
   155  150  151 2   
   156  150  163 1   
   157  152  153 1   
   158  152  159 1   
   159  152  160 1   
   160  153  154 1   
   161  153  161 1   
   162  153  162 1   
   163  154  155 1   
   164  154  156 1   
   165  163  164 1   
   166  163  168 1   
   167  164  165 1   
   168  164  166 1   
   169  164  167 1   
   170  170  171 1   
   171  170  172 1   
   172  173  174 1   
   173  173  175 1   
   174  176  177 1   
   175  176  178 1   
   176  179  180 1   
   177  179  181 1   
@<TRIPOS>SUBSTRUCTURE
     1 MOL         1 TEMP              0 ****  ****    0 ROOT
