@<TRIPOS>MOLECULE
MOL
  185   180     1     0     0
SMALL
resp


@<TRIPOS>ATOM
      1 C1         -1.1690   -4.7550    4.9320 c3        1 MOL     -0.170690
      2 C2         -0.7190   -4.0580    3.5870 c         1 MOL      0.748160
      3 O1         -1.3580   -4.2460    2.5550 o         1 MOL     -0.582180
      4 H1         -0.3200   -5.2790    5.3710 hc        1 MOL      0.044630
      5 H2         -1.5300   -3.9990    5.6300 hc        1 MOL      0.044630
      6 H3         -1.9680   -5.4670    4.7240 hc        1 MOL      0.044630
      7 N1          0.4730   -3.3870    3.6010 n         1 MOL     -0.684660
      8 C3          1.0680   -2.9170    2.3680 c3        1 MOL      0.019748
      9 C4          1.7960   -4.1000    1.6260 c         1 MOL      0.737750
     10 O2          2.5690   -4.8100    2.3290 o         1 MOL     -0.595550
     11 C5          1.9450   -1.6750    2.6240 c3        1 MOL     -0.104886
     12 C6          2.2910   -1.0260    1.3410 c         1 MOL      0.386526
     13 O3          3.0290    0.0050    1.3490 o         1 MOL     -0.646959
     14 O4          1.9560   -1.4210    0.1850 o         1 MOL     -0.646959
     15 H4          0.9800   -3.0930    4.4260 hn        1 MOL      0.347361
     16 H5          0.3440   -2.4440    1.7050 h1        1 MOL      0.054303
     17 H6          2.8580   -2.0050    3.1220 hc        1 MOL      0.088431
     18 H7          1.4580   -0.9320    3.2420 hc        1 MOL      0.088431
     19 N2          1.6530   -4.2340    0.3290 n         1 MOL     -0.662115
     20 C7          2.4130   -5.2700   -0.4050 c3        1 MOL      0.401871
     21 C8          3.8970   -4.8830   -0.6000 c         1 MOL      0.299576
     22 O5          4.6730   -5.8010   -0.9090 o         1 MOL     -0.541362
     23 C9          1.7000   -5.6780   -1.6790 c3        1 MOL     -0.062344
     24 C10         2.0410   -7.0820   -2.1560 c3        1 MOL      0.028047
     25 C11         1.4380   -7.3700   -3.5770 c3        1 MOL      0.009964
     26 C12         1.6560   -8.8340   -4.0190 c3        1 MOL     -0.083191
     27 N3          1.4520   -8.9700   -5.4520 n4        1 MOL     -0.229825
     28 H8          1.2630   -3.4140   -0.1310 hn        1 MOL      0.324642
     29 H9          2.3430   -6.1950    0.1690 h1        1 MOL      0.012717
     30 H10         2.0470   -4.9880   -2.4430 hc        1 MOL      0.017439
     31 H11         0.6130   -5.6740   -1.6110 hc        1 MOL      0.017439
     32 H12         1.7340   -7.8540   -1.4510 hc        1 MOL      0.011783
     33 H13         3.1000   -7.3000   -2.2290 hc        1 MOL      0.011783
     34 H14         1.7680   -6.5960   -4.2730 hc        1 MOL      0.019582
     35 H15         0.3610   -7.2210   -3.5080 hc        1 MOL      0.019582
     36 H16         0.9550   -9.2910   -3.3320 hx        1 MOL      0.116038
     37 H17         2.6790   -9.1390   -3.8430 hx        1 MOL      0.116038
     38 H18         2.0580   -8.3580   -5.9800 hn        1 MOL      0.274288
     39 H19         1.7290   -9.8890   -5.7610 hn        1 MOL      0.274288
     40 H20         0.5010   -8.8570   -5.7730 hn        1 MOL      0.274288
     41 N4          4.3030   -3.6040   -0.5190 n         1 MOL     -0.137898
     42 C13         5.7300   -3.2620   -0.7360 c3        1 MOL     -0.024655
     43 C14         6.3390   -2.3740    0.3370 c         1 MOL      0.429389
     44 O6          7.5110   -2.0970    0.3050 o         1 MOL     -0.510998
     45 C15         5.9730   -2.6870   -2.1670 c3        1 MOL     -0.438996
     46 C16         5.3010   -1.2890   -2.4580 c         1 MOL      0.820251
     47 O7          4.5690   -0.7320   -1.5770 o         1 MOL     -0.721638
     48 O8          5.6790   -0.7350   -3.5470 o         1 MOL     -0.721638
     49 H21         3.5850   -2.8870   -0.4220 hn        1 MOL      0.130085
     50 H22         6.3590   -4.1460   -0.7440 h1        1 MOL      0.144144
     51 H23         5.4560   -3.3560   -2.8590 hc        1 MOL      0.132427
     52 H24         7.0050   -2.6700   -2.5040 hc        1 MOL      0.132427
     53 N5          5.5560   -1.9500    1.3200 n         1 MOL     -0.232296
     54 C17         5.9380   -0.9040    2.3320 c3        1 MOL      0.093891
     55 C18         6.4530    0.4880    1.8150 c         1 MOL      0.437643
     56 O9          7.3080    1.0630    2.4440 o         1 MOL     -0.533576
     57 H25         4.5700   -2.1870    1.3550 hn        1 MOL      0.128424
     58 H26         6.7490   -1.3390    2.9350 h1        1 MOL      0.024974
     59 H27         5.0770   -0.8300    2.9910 h1        1 MOL      0.024974
     60 N6          5.9010    0.9510    0.6860 n         1 MOL     -0.039442
     61 C19         6.3770    2.1460    0.0530 c3        1 MOL      0.039312
     62 C20         5.2390    2.9340   -0.5050 c         1 MOL      0.376647
     63 O10         4.2040    2.3970   -0.8900 o         1 MOL     -0.483698
     64 C21         7.2780    1.6270   -1.0850 c3        1 MOL     -0.139909
     65 C22         8.0410    2.6850   -1.9350 c         1 MOL      0.617363
     66 N7          8.8310    2.2190   -2.8660 n         1 MOL     -0.778079
     67 O11         7.9870    3.9280   -1.7940 o         1 MOL     -0.588519
     68 H28         5.1320    0.4170    0.2980 hn        1 MOL      0.042918
     69 H29         6.9290    2.8110    0.7220 h1        1 MOL      0.037988
     70 H30         6.5760    1.1400   -1.7620 hc        1 MOL      0.081893
     71 H31         7.9730    0.9260   -0.6070 hc        1 MOL      0.081893
     72 H32         8.8020    1.2490   -3.1570 hn        1 MOL      0.366221
     73 H33         9.3010    2.8900   -3.4670 hn        1 MOL      0.366221
     74 N8          5.3610    4.2670   -0.4940 n         1 MOL     -0.266787
     75 C23         4.0790    5.0920   -0.7000 c3        1 MOL     -0.294353
     76 C24         2.9600    4.7880    0.2540 c         1 MOL      0.735428
     77 O12         3.2380    4.7330    1.4610 o         1 MOL     -0.530665
     78 H34         6.1530    4.7790   -0.1170 hn        1 MOL      0.316073
     79 H35         3.7110    4.9810   -1.7190 h1        1 MOL      0.114433
     80 H36         4.2850    6.1290   -0.4470 h1        1 MOL      0.114433
     81 N9          1.7620    4.5690   -0.3490 n         1 MOL     -0.631686
     82 C25         0.5750    4.4560    0.4680 c3        1 MOL      0.007499
     83 C26         0.6410    3.1150    1.2370 c         1 MOL      0.232519
     84 O13         1.2830    2.1520    0.7500 o         1 MOL     -0.350689
     85 C27        -0.6980    4.5240   -0.4470 c3        1 MOL      0.069066
     86 C28        -0.8970    5.9040   -1.1570 ca        1 MOL      0.021441
     87 C29        -0.7150    7.0500   -0.3660 ca        1 MOL     -0.189245
     88 C30        -1.2170    5.9440   -2.5100 ca        1 MOL     -0.189245
     89 C31        -0.9150    8.3020   -1.0380 ca        1 MOL     -0.182589
     90 C32        -1.3480    7.1680   -3.1260 ca        1 MOL     -0.182589
     91 C33        -1.1190    8.3510   -2.4410 ca        1 MOL      0.271875
     92 O14        -1.0780    9.5240   -3.1280 oh        1 MOL     -0.459555
     93 H37         1.6620    4.5210   -1.3530 hn        1 MOL      0.333901
     94 H38         0.6480    5.2590    1.2080 h1        1 MOL      0.115219
     95 H39        -1.5710    4.2670    0.1620 hc        1 MOL      0.004343
     96 H40        -0.6540    3.7540   -1.2090 hc        1 MOL      0.004343
     97 H41        -0.4170    7.0280    0.6770 ha        1 MOL      0.142892
     98 H42        -1.2960    5.0570   -3.1240 ha        1 MOL      0.142892
     99 H43        -0.7110    9.3050   -0.6720 ha        1 MOL      0.131481
    100 H44        -1.4990    7.1130   -4.1950 ha        1 MOL      0.131481
    101 H45        -1.5110    9.4000   -3.9700 ho        1 MOL      0.358231
    102 N10        -0.1280    3.0970    2.3260 n         1 MOL     -0.346608
    103 C34        -0.3490    2.0440    3.3620 c3        1 MOL      0.246714
    104 C35        -1.0040    0.7190    2.8020 c         1 MOL      0.144083
    105 O15        -0.7150    0.2600    1.7000 o         1 MOL     -0.320970
    106 C36         0.8460    1.9310    4.3770 c3        1 MOL      0.277888
    107 C37         0.3460    1.2280    5.6560 c3        1 MOL      0.010582
    108 C38         1.5190    3.3220    4.7210 c3        1 MOL     -0.293062
    109 C39         1.4400    0.7650    6.5590 c3        1 MOL     -0.077183
    110 H46        -0.3730    4.0230    2.6420 hn        1 MOL      0.247428
    111 H47        -1.2100    2.4870    3.8680 h1        1 MOL     -0.047876
    112 H48         1.6150    1.3310    3.8980 hc        1 MOL     -0.006067
    113 H49        -0.2490    0.3460    5.4360 hc        1 MOL     -0.041975
    114 H50        -0.2610    1.9120    6.2570 hc        1 MOL     -0.041975
    115 H51         2.2460    3.1310    5.5170 hc        1 MOL      0.074209
    116 H52         2.0120    3.7600    3.8500 hc        1 MOL      0.074209
    117 H53         0.6900    3.9090    5.1150 hc        1 MOL      0.074209
    118 H54         2.0720    1.5990    6.8600 hc        1 MOL      0.022623
    119 H55         1.0330    0.2380    7.4180 hc        1 MOL      0.022623
    120 H56         1.9950    0.0160    5.9960 hc        1 MOL      0.022623
    121 N11        -1.9440    0.1810    3.5340 n         1 MOL     -0.062437
    122 C40        -2.5880   -1.0210    3.0850 c3        1 MOL     -0.334996
    123 C41        -3.2980   -0.9880    1.7440 c         1 MOL      0.422675
    124 O16        -3.2970   -1.9690    1.0490 o         1 MOL     -0.408496
    125 C42        -3.5590   -1.5260    4.2000 c3        1 MOL      0.186006
    126 O17        -2.9340   -1.6560    5.4330 oh        1 MOL     -0.603086
    127 H57        -2.2410    0.6430    4.3840 hn        1 MOL      0.185806
    128 H58        -1.7920   -1.7620    3.0350 h1        1 MOL      0.229639
    129 H59        -3.9850   -2.4950    3.9010 h1        1 MOL      0.067855
    130 H60        -4.4040   -0.8590    4.3600 h1        1 MOL      0.067855
    131 H61        -3.0010   -0.8550    5.9540 ho        1 MOL      0.406515
    132 N12        -3.7410    0.2300    1.3150 n         1 MOL     -0.315167
    133 C43        -4.7110    0.3100    0.1740 c3        1 MOL      0.028381
    134 C44        -4.1280   -0.0970   -1.2470 c         1 MOL      0.588418
    135 O18        -2.9260   -0.1510   -1.3720 o         1 MOL     -0.563646
    136 C45        -5.2930    1.7650    0.1340 c3        1 MOL     -0.274853
    137 H62        -3.5980    1.0720    1.8560 hn        1 MOL      0.230063
    138 H63        -5.5550   -0.3280    0.4210 h1        1 MOL      0.072196
    139 H64        -6.2790    1.8100   -0.3210 hc        1 MOL      0.087837
    140 H65        -5.5210    2.1760    1.1230 hc        1 MOL      0.087837
    141 H66        -4.6370    2.4750   -0.3740 hc        1 MOL      0.087837
    142 N13        -4.8850   -0.5970   -2.2510 n         1 MOL     -0.593734
    143 C46        -6.2200   -1.1060   -2.1810 c3        1 MOL      0.139135
    144 C47        -7.2930    0.0400   -2.0920 c         1 MOL      0.651098
    145 O19        -7.2090    1.0180   -2.7810 o         1 MOL     -0.577692
    146 C48        -6.4970   -1.8860   -3.4590 c3        1 MOL     -0.200495
    147 H67        -4.2920   -0.7590   -3.0530 hn        1 MOL      0.335998
    148 H68        -6.2820   -1.8390   -1.3790 h1        1 MOL      0.081495
    149 H69        -5.8770   -2.7750   -3.5670 hc        1 MOL      0.065686
    150 H70        -7.5480   -2.1620   -3.4770 hc        1 MOL      0.065686
    151 H71        -6.2620   -1.2850   -4.3380 hc        1 MOL      0.065686
    152 N14        -8.4190   -0.0390   -1.3720 n         1 MOL     -0.495836
    153 C49        -8.8510   -1.2180   -0.5830 c3        1 MOL      0.010965
    154 C50        -9.1980   -0.7430    0.8040 c         1 MOL      0.434784
    155 O20        -8.7410   -1.3090    1.8060 o         1 MOL     -0.582599
    156 C51       -10.0180   -1.9760   -1.3070 c3        1 MOL      0.084689
    157 C52       -11.4210   -1.3930   -1.3680 c3        1 MOL     -0.133192
    158 C53       -11.5720   -0.1140   -2.1760 c         1 MOL      0.689257
    159 O21       -11.8580   -0.0640   -3.3820 o         1 MOL     -0.642810
    160 O22       -11.3550    0.9810   -1.5360 o         1 MOL     -0.642810
    161 H72        -8.9370    0.8170   -1.3510 hn        1 MOL      0.288816
    162 H73        -8.0180   -1.9120   -0.4890 h1        1 MOL      0.010193
    163 H74       -10.0760   -2.9290   -0.7720 hc        1 MOL     -0.000272
    164 H75        -9.7810   -2.3250   -2.3100 hc        1 MOL     -0.000272
    165 H76       -11.7630   -1.1630   -0.3590 hc        1 MOL      0.005088
    166 H77       -12.0160   -2.1050   -1.9400 hc        1 MOL      0.005088
    167 N15       -10.0210    0.2720    0.8910 n         1 MOL     -0.074909
    168 C54       -10.4080    1.0110    2.1440 c3        1 MOL     -0.218154
    169 H78       -11.3260    1.5710    1.9670 h1        1 MOL      0.094292
    170 H79       -10.5710    0.2970    2.9520 h1        1 MOL      0.094292
    171 H80        -9.6110    1.7000    2.4220 h1        1 MOL      0.094292
    172 H81       -10.4040    0.5120   -0.0070 hn        1 MOL      0.096756
    173 Ca1         2.3830    0.6260   -1.3050 Ca        1 MOL      1.760315
    174 O23         3.6720    1.3800   -3.7470 oh        1 MOL     -0.835911
    175 H82         4.4850    0.8800   -3.8440 ho        1 MOL      0.406745
    176 H83         3.8630    2.2390   -4.1060 ho        1 MOL      0.406745
    177 O24        -0.2450    0.3180   -0.7600 oh        1 MOL     -0.835911
    178 H84        -1.0550   -0.0080   -1.1570 ho        1 MOL      0.406745
    179 H85        -0.4510    0.4180    0.1650 ho        1 MOL      0.406745
    180 O25         1.4110   -1.3280   -3.1290 oh        1 MOL     -0.835911
    181 H86         0.5610   -1.7050   -2.9260 ho        1 MOL      0.406745
    182 H87         1.5920   -1.5810   -4.0330 ho        1 MOL      0.406745
    183 O26         1.0350    2.3340   -2.7750 oh        1 MOL     -0.835911
    184 H88         0.1020    2.1380   -2.7770 ho        1 MOL      0.406745
    185 H89         1.1020    3.1300   -3.3110 ho        1 MOL      0.406745
@<TRIPOS>BOND
     1    1    2 1   
     2    1    4 1   
     3    1    5 1   
     4    1    6 1   
     5    2    3 2   
     6    2    7 1   
     7    7    8 1   
     8    7   15 1   
     9    8    9 1   
    10    8   11 1   
    11    8   16 1   
    12    9   10 2   
    13    9   19 1   
    14   11   12 1   
    15   11   17 1   
    16   11   18 1   
    17   12   13 1   
    18   12   14 1   
    19   19   20 1   
    20   19   28 1   
    21   20   21 1   
    22   20   23 1   
    23   20   29 1   
    24   21   22 2   
    25   21   41 1   
    26   23   24 1   
    27   23   30 1   
    28   23   31 1   
    29   24   25 1   
    30   24   32 1   
    31   24   33 1   
    32   25   26 1   
    33   25   34 1   
    34   25   35 1   
    35   26   27 1   
    36   26   36 1   
    37   26   37 1   
    38   27   38 1   
    39   27   39 1   
    40   27   40 1   
    41   41   42 1   
    42   41   49 1   
    43   42   43 1   
    44   42   45 1   
    45   42   50 1   
    46   43   44 2   
    47   43   53 1   
    48   45   46 1   
    49   45   51 1   
    50   45   52 1   
    51   46   47 1   
    52   46   48 1   
    53   53   54 1   
    54   53   57 1   
    55   54   55 1   
    56   54   58 1   
    57   54   59 1   
    58   55   56 2   
    59   55   60 1   
    60   60   61 1   
    61   60   68 1   
    62   61   62 1   
    63   61   64 1   
    64   61   69 1   
    65   62   63 2   
    66   62   74 1   
    67   64   65 1   
    68   64   70 1   
    69   64   71 1   
    70   65   66 1   
    71   65   67 2   
    72   66   72 1   
    73   66   73 1   
    74   74   75 1   
    75   74   78 1   
    76   75   76 1   
    77   75   79 1   
    78   75   80 1   
    79   76   77 2   
    80   76   81 1   
    81   81   82 1   
    82   81   93 1   
    83   82   83 1   
    84   82   85 1   
    85   82   94 1   
    86   83   84 2   
    87   83  102 1   
    88   85   86 1   
    89   85   95 1   
    90   85   96 1   
    91   86   87 ar  
    92   86   88 ar  
    93   87   89 ar  
    94   87   97 1   
    95   88   90 ar  
    96   88   98 1   
    97   89   91 ar  
    98   89   99 1   
    99   90   91 ar  
   100   90  100 1   
   101   91   92 1   
   102   92  101 1   
   103  102  103 1   
   104  102  110 1   
   105  103  104 1   
   106  103  106 1   
   107  103  111 1   
   108  104  105 2   
   109  104  121 1   
   110  106  107 1   
   111  106  108 1   
   112  106  112 1   
   113  107  109 1   
   114  107  113 1   
   115  107  114 1   
   116  108  115 1   
   117  108  116 1   
   118  108  117 1   
   119  109  118 1   
   120  109  119 1   
   121  109  120 1   
   122  121  122 1   
   123  121  127 1   
   124  122  123 1   
   125  122  125 1   
   126  122  128 1   
   127  123  124 2   
   128  123  132 1   
   129  125  126 1   
   130  125  129 1   
   131  125  130 1   
   132  126  131 1   
   133  132  133 1   
   134  132  137 1   
   135  133  134 1   
   136  133  136 1   
   137  133  138 1   
   138  134  135 2   
   139  134  142 1   
   140  136  139 1   
   141  136  140 1   
   142  136  141 1   
   143  142  143 1   
   144  142  147 1   
   145  143  144 1   
   146  143  146 1   
   147  143  148 1   
   148  144  145 2   
   149  144  152 1   
   150  146  149 1   
   151  146  150 1   
   152  146  151 1   
   153  152  153 1   
   154  152  161 1   
   155  153  154 1   
   156  153  156 1   
   157  153  162 1   
   158  154  155 2   
   159  154  167 1   
   160  156  157 1   
   161  156  163 1   
   162  156  164 1   
   163  157  158 1   
   164  157  165 1   
   165  157  166 1   
   166  158  159 1   
   167  158  160 1   
   168  167  168 1   
   169  167  172 1   
   170  168  169 1   
   171  168  170 1   
   172  168  171 1   
   173  174  175 1   
   174  174  176 1   
   175  177  178 1   
   176  177  179 1   
   177  180  181 1   
   178  180  182 1   
   179  183  184 1   
   180  183  185 1   
@<TRIPOS>SUBSTRUCTURE
     1 MOL         1 TEMP              0 ****  ****    0 ROOT
