@<TRIPOS>MOLECULE
MOL
  195   189     1     0     0
SMALL
resp


@<TRIPOS>ATOM
      1 C1          3.8110   -2.2560   -2.7620 c3        1 MOL     -0.275060
      2 C2          2.9660   -2.7790   -1.5690 c         1 MOL      0.628368
      3 O1          1.9760   -2.1330   -1.1910 o         1 MOL     -0.532348
      4 H1          3.4610   -2.7190   -3.6850 hc        1 MOL      0.061245
      5 H2          3.7040   -1.1740   -2.8360 hc        1 MOL      0.061245
      6 H3          4.8590   -2.5090   -2.6040 hc        1 MOL      0.061245
      7 N1          3.3540   -3.9200   -0.9520 n         1 MOL     -0.115370
      8 C3          2.6150   -4.7290    0.0520 c3        1 MOL     -0.126115
      9 C4          1.0860   -4.7550   -0.1540 c         1 MOL      0.768632
     10 O2          0.2770   -4.3910    0.6720 o         1 MOL     -0.537398
     11 C5          3.0820   -4.2630    1.4450 c3        1 MOL     -0.477338
     12 C6          4.5640   -4.2070    1.6380 c         1 MOL      0.923034
     13 O3          5.0370   -3.3870    2.4180 o         1 MOL     -0.750703
     14 O4          5.4270   -5.0120    1.1520 o         1 MOL     -0.750703
     15 H4          4.2290   -4.3460   -1.2000 hn        1 MOL      0.090167
     16 H5          3.0300   -5.7250   -0.0870 h1        1 MOL      0.069388
     17 H6          2.5720   -4.9630    2.1060 hc        1 MOL      0.142580
     18 H7          2.5870   -3.3120    1.6570 hc        1 MOL      0.142580
     19 N2          0.6830   -4.9710   -1.4170 n         1 MOL     -0.570334
     20 C7         -0.7260   -5.0730   -1.8090 c3        1 MOL     -0.026220
     21 C8         -1.4010   -6.2560   -1.1870 c         1 MOL      0.482185
     22 O5         -0.7980   -7.3110   -1.1320 o         1 MOL     -0.578963
     23 C9         -0.9830   -4.9860   -3.3460 c3        1 MOL      0.268128
     24 C10        -0.1800   -6.0510   -4.0700 c3        1 MOL      0.254028
     25 C11        -0.6290   -3.5440   -3.8240 c3        1 MOL     -0.266835
     26 C12        -0.5990   -6.4380   -5.5020 c3        1 MOL     -0.515989
     27 H8          1.3430   -5.1740   -2.1490 hn        1 MOL      0.208834
     28 H9         -1.2450   -4.2250   -1.3490 h1        1 MOL      0.122724
     29 H10        -2.0480   -5.1620   -3.4240 hc        1 MOL     -0.023429
     30 H11        -0.0640   -6.9450   -3.4620 hc        1 MOL     -0.046696
     31 H12         0.8230   -5.6240   -4.0380 hc        1 MOL     -0.046696
     32 H13        -0.3480   -3.6030   -4.8790 hc        1 MOL      0.054962
     33 H14        -1.4890   -2.8870   -3.7300 hc        1 MOL      0.054962
     34 H15         0.2460   -3.2190   -3.2480 hc        1 MOL      0.054962
     35 H16        -1.4820   -7.0410   -5.3210 hc        1 MOL      0.114699
     36 H17        -0.7890   -5.5700   -6.1360 hc        1 MOL      0.114699
     37 H18         0.1200   -7.1410   -5.9220 hc        1 MOL      0.114699
     38 N3         -2.6930   -6.2910   -0.7930 n         1 MOL     -0.427123
     39 C13        -3.5530   -5.1930   -0.5740 c3        1 MOL     -0.054027
     40 C14        -4.5520   -5.6530    0.3960 c         1 MOL      0.619017
     41 O6         -5.5640   -6.2840    0.1100 o         1 MOL     -0.534652
     42 C15        -4.2660   -4.8240   -1.9060 c3        1 MOL     -0.235100
     43 C16        -5.4350   -3.8320   -1.7470 c         1 MOL      0.747689
     44 O7         -6.2960   -3.6090   -2.6540 o         1 MOL     -0.718332
     45 O8         -5.5140   -3.2270   -0.6530 o         1 MOL     -0.718332
     46 H19        -2.9820   -7.1660   -0.3850 hn        1 MOL      0.289368
     47 H20        -3.1330   -4.2940   -0.1270 h1        1 MOL      0.108658
     48 H21        -4.6290   -5.7070   -2.4270 hc        1 MOL      0.045046
     49 H22        -3.6220   -4.3200   -2.6340 hc        1 MOL      0.045046
     50 N4         -4.2630   -5.2760    1.6130 n         1 MOL     -0.456752
     51 C17        -5.1880   -5.4970    2.7320 c3        1 MOL     -0.155870
     52 C18        -6.1600   -4.3450    3.0250 c         1 MOL      0.624416
     53 O9         -7.0390   -4.5700    3.8170 o         1 MOL     -0.611209
     54 H23        -3.4980   -4.6560    1.8280 hn        1 MOL      0.308528
     55 H24        -4.5550   -5.6530    3.6030 h1        1 MOL      0.093848
     56 H25        -5.6570   -6.4750    2.6300 h1        1 MOL      0.093848
     57 N5         -6.1100   -3.1100    2.4460 n         1 MOL     -0.400475
     58 C19        -6.7790   -1.8740    2.8210 c3        1 MOL      0.067113
     59 C20        -7.8160   -1.2140    1.8670 c         1 MOL      0.589100
     60 O10        -8.8070   -0.7140    2.3600 o         1 MOL     -0.596931
     61 C21        -5.7230   -0.9000    3.3130 c3        1 MOL     -0.331857
     62 C22        -4.7590   -0.4450    2.2130 c         1 MOL      0.711545
     63 O11        -3.7650   -1.1470    2.0110 o         1 MOL     -0.683532
     64 O12        -5.0650    0.5240    1.4820 o         1 MOL     -0.683532
     65 H26        -5.3960   -3.0480    1.7210 hn        1 MOL      0.256223
     66 H27        -7.4210   -2.1650    3.6510 h1        1 MOL      0.069022
     67 H28        -5.1130   -1.2870    4.1210 hc        1 MOL      0.069711
     68 H29        -6.3220   -0.0970    3.7550 hc        1 MOL      0.069711
     69 N6         -7.6300   -1.2220    0.5280 n         1 MOL     -0.426259
     70 C23        -8.3250   -0.4210   -0.4430 c3        1 MOL      0.080025
     71 C24        -8.1050    1.1630   -0.4530 c         1 MOL      0.344768
     72 O13        -8.7520    1.8990   -1.2570 o         1 MOL     -0.574437
     73 H30        -6.8440   -1.7340    0.1440 hn        1 MOL      0.315772
     74 H31        -9.3930   -0.6460   -0.3950 h1        1 MOL      0.056265
     75 H32        -8.1380   -0.7710   -1.4550 h1        1 MOL      0.056265
     76 N7         -7.2250    1.6280    0.4530 n         1 MOL     -0.047648
     77 C25        -6.9810    3.0620    0.7370 c3        1 MOL     -0.003350
     78 C26        -6.4320    3.9270   -0.4490 c         1 MOL      0.405231
     79 O14        -6.7190    5.1120   -0.5550 o         1 MOL     -0.515146
     80 C27        -8.1710    3.7650    1.5070 c3        1 MOL      0.121053
     81 C28        -8.2250    3.2770    2.9460 c3        1 MOL     -0.241540
     82 C29        -7.5160    4.1040    4.0120 c         1 MOL      0.625267
     83 N8         -7.6880    3.7880    5.3180 n         1 MOL     -0.769224
     84 O15        -6.8770    5.1550    3.7180 o         1 MOL     -0.520373
     85 H33        -6.7890    0.9560    1.0790 hn        1 MOL      0.109538
     86 H34        -6.2040    3.0930    1.5030 h1        1 MOL      0.082922
     87 H35        -9.0930    3.5360    0.9770 hc        1 MOL     -0.006271
     88 H36        -8.0170    4.8460    1.5360 hc        1 MOL     -0.006271
     89 H37        -7.8730    2.2430    2.9930 hc        1 MOL      0.052329
     90 H38        -9.3020    3.3040    3.1300 hc        1 MOL      0.052329
     91 H39        -8.2630    2.9700    5.4900 hn        1 MOL      0.336138
     92 H40        -7.5600    4.4710    6.0560 hn        1 MOL      0.336138
     93 N9         -5.6400    3.3440   -1.3180 n         1 MOL     -0.299774
     94 C30        -5.1520    4.0430   -2.5390 c3        1 MOL      0.051424
     95 C31        -3.6910    4.0350   -2.8750 c         1 MOL      0.507291
     96 O16        -3.1990    4.6800   -3.8300 o         1 MOL     -0.567584
     97 C32        -5.9500    3.5820   -3.8360 c3        1 MOL      0.244759
     98 C33        -6.0380    2.0600   -4.0320 c3        1 MOL     -0.394030
     99 C34        -7.3150    4.0670   -3.9490 c3        1 MOL     -0.394030
    100 H41        -5.4350    2.3650   -1.1600 hn        1 MOL      0.206175
    101 H42        -5.3570    5.1000   -2.3730 h1        1 MOL      0.091192
    102 H43        -5.4940    4.1430   -4.6560 hc        1 MOL     -0.032724
    103 H44        -6.6010    1.4690   -3.3000 hc        1 MOL      0.097563
    104 H45        -6.6150    1.8980   -4.9400 hc        1 MOL      0.097563
    105 H46        -5.0580    1.6350   -4.2020 hc        1 MOL      0.097563
    106 H47        -7.3230    5.1230   -3.6950 hc        1 MOL      0.097563
    107 H48        -7.7950    3.8610   -4.9050 hc        1 MOL      0.097563
    108 H49        -7.9680    3.5280   -3.2620 hc        1 MOL      0.097563
    109 N10        -2.9660    3.3640   -1.9720 n         1 MOL     -0.566936
    110 C35        -1.5210    2.9710   -2.1240 c3        1 MOL      0.492011
    111 C36        -0.6690    3.2190   -0.8810 c         1 MOL      0.409799
    112 O17        -1.1320    3.6140    0.1970 o         1 MOL     -0.537911
    113 C37        -1.5920    1.4900   -2.5740 c3        1 MOL     -0.331379
    114 C38        -0.3000    0.6330   -2.6250 c         1 MOL      0.642033
    115 N11        -0.2230   -0.4890   -1.9370 n         1 MOL     -0.756232
    116 O18         0.6910    1.0710   -3.1780 o         1 MOL     -0.583612
    117 H50        -3.4420    3.0280   -1.1520 hn        1 MOL      0.276067
    118 H51        -1.0040    3.4820   -2.9290 h1        1 MOL     -0.008032
    119 H52        -2.0090    1.4860   -3.5810 hc        1 MOL      0.097055
    120 H53        -2.1750    0.9770   -1.8170 hc        1 MOL      0.097055
    121 H54        -0.9560   -0.7440   -1.2920 hn        1 MOL      0.363586
    122 H55         0.6490   -0.9790   -1.8260 hn        1 MOL      0.363586
    123 N12         0.5980    2.9820   -1.0460 n         1 MOL     -0.507851
    124 C39         1.5880    3.1950    0.0400 c3        1 MOL      0.454729
    125 C40         2.8820    3.7690   -0.5480 c         1 MOL      0.390170
    126 O19         3.2810    3.4960   -1.6770 o         1 MOL     -0.509126
    127 C41         1.8590    1.9490    0.9090 c3        1 MOL     -0.296757
    128 C42         2.4130    2.1740    2.2910 ca        1 MOL      0.081770
    129 C43         3.7920    2.1750    2.5000 ca        1 MOL     -0.184317
    130 C44         1.4790    2.5750    3.2300 ca        1 MOL     -0.184317
    131 C45         4.3000    2.7470    3.6680 ca        1 MOL     -0.237137
    132 C46         1.9750    3.1190    4.4780 ca        1 MOL     -0.237137
    133 C47         3.3690    3.1970    4.6750 ca        1 MOL      0.281375
    134 O20         3.8420    3.7480    5.8360 oh        1 MOL     -0.501918
    135 H56         0.9010    2.6690   -1.9610 hn        1 MOL      0.242738
    136 H57         1.2440    3.9900    0.7110 h1        1 MOL     -0.028934
    137 H58         2.5800    1.3410    0.3650 hc        1 MOL      0.120258
    138 H59         0.8590    1.5490    1.0800 hc        1 MOL      0.120258
    139 H60         4.4680    1.8920    1.6960 ha        1 MOL      0.187416
    140 H61         0.4440    2.6780    2.9560 ha        1 MOL      0.187416
    141 H62         5.3620    2.7500    3.8520 ha        1 MOL      0.147045
    142 H63         1.2510    3.6040    5.1160 ha        1 MOL      0.147045
    143 H64         4.7960    3.6700    5.9450 ho        1 MOL      0.359295
    144 N13         3.5280    4.5870    0.2600 n         1 MOL     -0.448816
    145 C48         4.8660    5.2220   -0.0080 c3        1 MOL     -0.009116
    146 C49         5.9520    4.5820    0.9240 c         1 MOL      0.509047
    147 O21         6.3870    5.1540    1.9190 o         1 MOL     -0.571651
    148 C50         4.6550    6.7320    0.2190 c3        1 MOL     -0.004731
    149 C51         3.7440    7.3400   -0.8300 c3        1 MOL     -0.135566
    150 C52         3.9250    8.8500   -0.9930 c         1 MOL      0.693583
    151 O22         4.7660    9.3290   -1.7690 o         1 MOL     -0.695578
    152 O23         3.2560    9.5740   -0.2220 o         1 MOL     -0.695578
    153 H65         3.0440    4.9180    1.0930 hn        1 MOL      0.331595
    154 H66         5.1400    5.0470   -1.0420 h1        1 MOL      0.173527
    155 H67         5.6080    7.2710    0.1980 hc        1 MOL      0.035116
    156 H68         4.2370    6.8830    1.2110 hc        1 MOL      0.035116
    157 H69         2.6630    7.2190   -0.6890 hc        1 MOL      0.003315
    158 H70         4.0030    6.8110   -1.7510 hc        1 MOL      0.003315
    159 N14         6.5020    3.4180    0.6590 n         1 MOL     -0.417374
    160 C53         6.2550    2.6010   -0.5160 c3        1 MOL      0.052570
    161 C54         6.6870    3.3010   -1.7830 c         1 MOL      0.480651
    162 O24         7.6860    4.0160   -1.7440 o         1 MOL     -0.523472
    163 C55         6.8100    1.2400   -0.2200 c3        1 MOL      0.022323
    164 C56         6.3680    0.1050   -1.1120 c3        1 MOL      0.022568
    165 C57         6.7420   -1.2660   -0.6470 c         1 MOL      0.818711
    166 O25         5.8990   -1.9680   -0.0570 o         1 MOL     -0.846004
    167 O26         7.9250   -1.7140   -0.8400 o         1 MOL     -0.846004
    168 H71         7.1570    3.1410    1.3780 hn        1 MOL      0.244733
    169 H72         5.1780    2.4180   -0.5590 h1        1 MOL     -0.043715
    170 H73         6.4690    1.0330    0.8030 hc        1 MOL      0.011469
    171 H74         7.8910    1.1760   -0.1700 hc        1 MOL      0.011469
    172 H75         6.7540    0.2850   -2.1130 hc        1 MOL     -0.012592
    173 H76         5.2780    0.1440   -1.1190 hc        1 MOL     -0.012592
    174 N15         6.0500    2.8600   -2.8970 n         1 MOL     -0.257394
    175 C58         6.2830    3.4600   -4.2250 c3        1 MOL     -0.227243
    176 H77         6.0370    2.7330   -4.9990 h1        1 MOL      0.099214
    177 H78         5.6540    4.3420   -4.3430 h1        1 MOL      0.099214
    178 H79         7.3320    3.7450   -4.3170 h1        1 MOL      0.099214
    179 H80         5.3050    2.1760   -2.8720 hn        1 MOL      0.269909
    180 Ca1         7.5550   -3.6600    1.0800 Ca        1 MOL      1.753685
    181 O27        10.0200   -3.6040    2.1090 oh        1 MOL     -0.796863
    182 H81        10.8680   -3.5030    1.6780 ho        1 MOL      0.375736
    183 H82        10.0920   -3.0700    2.9080 ho        1 MOL      0.375736
    184 O28         8.0280   -1.2700    2.3080 oh        1 MOL     -0.796863
    185 H83         7.6580   -0.5600    2.8230 ho        1 MOL      0.375736
    186 H84         8.9130   -1.3820    2.6570 ho        1 MOL      0.375736
    187 O29         8.2790   -6.3460    1.5360 oh        1 MOL     -0.796863
    188 H85         7.9480   -6.9360    2.2170 ho        1 MOL      0.375736
    189 H86         9.1570   -6.6740    1.3430 ho        1 MOL      0.375736
    190 O30        10.0080   -3.0610   -0.7520 oh        1 MOL     -0.796863
    191 H87         9.2980   -2.4870   -1.0160 ho        1 MOL      0.375736
    192 H88        10.8040   -2.5890   -1.0020 ho        1 MOL      0.375736
    193 O31         7.5780   -3.9060    3.6980 oh        1 MOL     -0.796863
    194 H89         8.0250   -3.5590    4.4760 ho        1 MOL      0.375736
    195 H90         6.6970   -4.1210    4.0080 ho        1 MOL      0.375736
@<TRIPOS>BOND
     1    1    2 1   
     2    1    4 1   
     3    1    5 1   
     4    1    6 1   
     5    2    3 2   
     6    2    7 1   
     7    7    8 1   
     8    7   15 1   
     9    8    9 1   
    10    8   11 1   
    11    8   16 1   
    12    9   10 2   
    13    9   19 1   
    14   11   12 1   
    15   11   17 1   
    16   11   18 1   
    17   12   13 1   
    18   12   14 1   
    19   19   20 1   
    20   19   27 1   
    21   20   21 1   
    22   20   23 1   
    23   20   28 1   
    24   21   22 2   
    25   21   38 1   
    26   23   24 1   
    27   23   25 1   
    28   23   29 1   
    29   24   26 1   
    30   24   30 1   
    31   24   31 1   
    32   25   32 1   
    33   25   33 1   
    34   25   34 1   
    35   26   35 1   
    36   26   36 1   
    37   26   37 1   
    38   38   39 1   
    39   38   46 1   
    40   39   40 1   
    41   39   42 1   
    42   39   47 1   
    43   40   41 2   
    44   40   50 1   
    45   42   43 1   
    46   42   48 1   
    47   42   49 1   
    48   43   44 1   
    49   43   45 1   
    50   50   51 1   
    51   50   54 1   
    52   51   52 1   
    53   51   55 1   
    54   51   56 1   
    55   52   53 2   
    56   52   57 1   
    57   57   58 1   
    58   57   65 1   
    59   58   59 1   
    60   58   61 1   
    61   58   66 1   
    62   59   60 2   
    63   59   69 1   
    64   61   62 1   
    65   61   67 1   
    66   61   68 1   
    67   62   63 1   
    68   62   64 1   
    69   69   70 1   
    70   69   73 1   
    71   70   71 1   
    72   70   74 1   
    73   70   75 1   
    74   71   72 2   
    75   71   76 1   
    76   76   77 1   
    77   76   85 1   
    78   77   78 1   
    79   77   80 1   
    80   77   86 1   
    81   78   79 2   
    82   78   93 1   
    83   80   81 1   
    84   80   87 1   
    85   80   88 1   
    86   81   82 1   
    87   81   89 1   
    88   81   90 1   
    89   82   83 1   
    90   82   84 2   
    91   83   91 1   
    92   83   92 1   
    93   93   94 1   
    94   93  100 1   
    95   94   95 1   
    96   94   97 1   
    97   94  101 1   
    98   95   96 2   
    99   95  109 1   
   100   97   98 1   
   101   97   99 1   
   102   97  102 1   
   103   98  103 1   
   104   98  104 1   
   105   98  105 1   
   106   99  106 1   
   107   99  107 1   
   108   99  108 1   
   109  109  110 1   
   110  109  117 1   
   111  110  111 1   
   112  110  113 1   
   113  110  118 1   
   114  111  112 2   
   115  111  123 1   
   116  113  114 1   
   117  113  119 1   
   118  113  120 1   
   119  114  115 1   
   120  114  116 2   
   121  115  121 1   
   122  115  122 1   
   123  123  124 1   
   124  123  135 1   
   125  124  125 1   
   126  124  127 1   
   127  124  136 1   
   128  125  126 2   
   129  125  144 1   
   130  127  128 1   
   131  127  137 1   
   132  127  138 1   
   133  128  129 ar  
   134  128  130 ar  
   135  129  131 ar  
   136  129  139 1   
   137  130  132 ar  
   138  130  140 1   
   139  131  133 ar  
   140  131  141 1   
   141  132  133 ar  
   142  132  142 1   
   143  133  134 1   
   144  134  143 1   
   145  144  145 1   
   146  144  153 1   
   147  145  146 1   
   148  145  148 1   
   149  145  154 1   
   150  146  147 2   
   151  146  159 1   
   152  148  149 1   
   153  148  155 1   
   154  148  156 1   
   155  149  150 1   
   156  149  157 1   
   157  149  158 1   
   158  150  151 1   
   159  150  152 1   
   160  159  160 1   
   161  159  168 1   
   162  160  161 1   
   163  160  163 1   
   164  160  169 1   
   165  161  162 2   
   166  161  174 1   
   167  163  164 1   
   168  163  170 1   
   169  163  171 1   
   170  164  165 1   
   171  164  172 1   
   172  164  173 1   
   173  165  166 1   
   174  165  167 1   
   175  174  175 1   
   176  174  179 1   
   177  175  176 1   
   178  175  177 1   
   179  175  178 1   
   180  181  182 1   
   181  181  183 1   
   182  184  185 1   
   183  184  186 1   
   184  187  188 1   
   185  187  189 1   
   186  190  191 1   
   187  190  192 1   
   188  193  194 1   
   189  193  195 1   
@<TRIPOS>SUBSTRUCTURE
     1 MOL         1 TEMP              0 ****  ****    0 ROOT
