@<TRIPOS>MOLECULE
MOL
  185   180     1     0     0
SMALL
resp


@<TRIPOS>ATOM
      1 C1         -4.5200    0.4060   -4.0660 c3        1 MOL     -0.420448
      2 C2         -5.2520    0.7480   -2.7100 c         1 MOL      0.605224
      3 O1         -4.5910    0.6140   -1.7000 o         1 MOL     -0.513890
      4 H1         -5.1610    0.6820   -4.9040 hc        1 MOL      0.105797
      5 H2         -3.5850    0.9630   -4.1260 hc        1 MOL      0.105797
      6 H3         -4.3110   -0.6630   -4.1070 hc        1 MOL      0.105797
      7 N1         -6.5320    1.1980   -2.6920 n         1 MOL     -0.405780
      8 C3         -7.1750    1.6650   -1.4830 c3        1 MOL     -0.032417
      9 C4         -7.2680    0.6470   -0.2890 c         1 MOL      0.281141
     10 O2         -7.2990    1.0380    0.8980 o         1 MOL     -0.419581
     11 C5         -6.6510    3.0050   -1.0410 c3        1 MOL     -0.316426
     12 C6         -7.6660    3.6920   -0.1190 c         1 MOL      0.835222
     13 O3         -7.3620    4.1420    0.9980 o         1 MOL     -0.657927
     14 O4         -8.7960    3.9610   -0.5350 o         1 MOL     -0.657927
     15 H4         -6.9490    1.2630   -3.6030 hn        1 MOL      0.293638
     16 H5         -8.2130    1.8240   -1.8080 h1        1 MOL      0.061094
     17 H6         -6.4270    3.6540   -1.8880 hc        1 MOL      0.135832
     18 H7         -5.7590    2.9490   -0.4130 hc        1 MOL      0.135832
     19 N2         -7.3630   -0.6620   -0.6220 n         1 MOL     -0.147014
     20 C7         -7.7090   -1.8310    0.2610 c3        1 MOL     -0.055406
     21 C8         -6.4260   -2.5690    0.7400 c         1 MOL      0.560167
     22 O5         -6.5170   -3.1980    1.7720 o         1 MOL     -0.544527
     23 C9         -8.7170   -2.6500   -0.5810 c3        1 MOL     -0.048485
     24 C10       -10.1490   -2.1330   -0.5340 c3        1 MOL      0.100208
     25 C11       -11.0360   -3.3220   -1.1670 c3        1 MOL     -0.095612
     26 C12       -12.5240   -3.0320   -0.7700 c3        1 MOL      0.034408
     27 N3        -13.2410   -4.3040   -0.7830 n4        1 MOL     -0.252566
     28 H8         -7.1210   -0.8430   -1.5820 hn        1 MOL      0.122756
     29 H9         -8.1670   -1.3830    1.1510 h1        1 MOL      0.126187
     30 H10        -8.8180   -3.6370   -0.1150 hc        1 MOL      0.010301
     31 H11        -8.3680   -2.8340   -1.6030 hc        1 MOL      0.010301
     32 H12       -10.2740   -1.2520   -1.1560 hc        1 MOL      0.004286
     33 H13       -10.4710   -1.9640    0.4930 hc        1 MOL      0.004286
     34 H14       -10.6940   -4.2790   -0.7810 hc        1 MOL      0.049717
     35 H15       -10.8470   -3.3140   -2.2430 hc        1 MOL      0.049717
     36 H16       -12.9580   -2.1740   -1.2920 hx        1 MOL      0.078766
     37 H17       -12.6560   -2.6930    0.2550 hx        1 MOL      0.078766
     38 H18       -14.0130   -4.1790   -0.1460 hn        1 MOL      0.233072
     39 H19       -13.5670   -4.4540   -1.7270 hn        1 MOL      0.233072
     40 H20       -12.6580   -5.0930   -0.5350 hn        1 MOL      0.233072
     41 N4         -5.3400   -2.3420    0.0510 n         1 MOL     -0.353696
     42 C13        -4.1350   -3.1650    0.2520 c3        1 MOL     -0.168066
     43 C14        -3.4670   -2.6140    1.5710 c         1 MOL      0.650263
     44 O6         -3.5230   -1.4880    1.9000 o         1 MOL     -0.460024
     45 C15        -3.1490   -2.9330   -0.8510 c3        1 MOL     -0.142734
     46 C16        -1.7920   -3.6290   -0.6800 c         1 MOL      0.603476
     47 O7         -1.5360   -4.7450   -1.1910 o         1 MOL     -0.685497
     48 O8         -0.8980   -2.9910   -0.0430 o         1 MOL     -0.685497
     49 H21        -5.2170   -1.5550   -0.5800 hn        1 MOL      0.265970
     50 H22        -4.4360   -4.2140    0.3570 h1        1 MOL      0.093597
     51 H23        -2.9990   -1.8580   -0.9240 hc        1 MOL      0.084427
     52 H24        -3.6390   -3.1360   -1.8100 hc        1 MOL      0.084427
     53 N5         -2.7520   -3.4650    2.3150 n         1 MOL     -0.457178
     54 C17        -2.2000   -3.2360    3.5920 c3        1 MOL      0.012206
     55 C18        -1.3190   -2.0080    3.8850 c         1 MOL      0.481845
     56 O9         -1.4150   -1.3530    4.9100 o         1 MOL     -0.544401
     57 H25        -2.5870   -4.3290    1.8140 hn        1 MOL      0.253025
     58 H26        -1.7320   -4.1550    3.9240 h1        1 MOL      0.061639
     59 H27        -3.0800   -3.2310    4.2480 h1        1 MOL      0.061639
     60 N6         -0.4510   -1.5910    2.9620 n         1 MOL     -0.297396
     61 C19         0.5400   -0.4980    3.0580 c3        1 MOL     -0.060783
     62 C20        -0.0640    0.9310    3.0930 c         1 MOL      0.520460
     63 O10         0.6360    1.9440    3.1610 o         1 MOL     -0.534974
     64 C21         1.4950   -0.7300    1.9000 c3        1 MOL     -0.401953
     65 C22         2.3040   -2.0120    1.9980 c         1 MOL      0.711865
     66 N7          3.0720   -2.2720    2.9980 n         1 MOL     -0.725970
     67 O11         2.2970   -2.8150    1.1060 o         1 MOL     -0.576647
     68 H28        -0.3710   -2.0760    2.0810 hn        1 MOL      0.167815
     69 H29         1.0630   -0.6310    4.0040 h1        1 MOL      0.097232
     70 H30         2.2210    0.0810    1.8670 hc        1 MOL      0.154659
     71 H31         0.9470   -0.7630    0.9570 hc        1 MOL      0.154659
     72 H32         3.2340   -1.5750    3.7150 hn        1 MOL      0.356679
     73 H33         3.5050   -3.1700    2.9120 hn        1 MOL      0.356679
     74 N8         -1.4030    1.0930    2.9530 n         1 MOL     -0.149526
     75 C23        -2.0890    2.4340    3.1530 c3        1 MOL     -0.234272
     76 C24        -1.6040    3.4690    2.0940 c         1 MOL      0.596003
     77 O12        -1.2020    4.6460    2.3480 o         1 MOL     -0.553418
     78 H34        -1.9910    0.2830    2.9240 hn        1 MOL      0.227529
     79 H35        -1.8640    2.8120    4.1570 h1        1 MOL      0.130316
     80 H36        -3.1510    2.2870    2.9610 h1        1 MOL      0.130316
     81 N9         -1.3960    3.0160    0.8450 n         1 MOL     -0.302597
     82 C25        -0.5970    3.6390   -0.2210 c3        1 MOL      0.137705
     83 C26         0.4900    2.6920   -0.8020 c         1 MOL      0.556088
     84 O13         0.2780    1.4730   -0.8500 o         1 MOL     -0.503696
     85 C27        -1.4650    4.2990   -1.3560 c3        1 MOL     -0.157449
     86 C28        -2.4430    5.3300   -0.8970 ca        1 MOL      0.214347
     87 C29        -3.8030    5.0210   -0.8470 ca        1 MOL     -0.367576
     88 C30        -1.9380    6.6460   -0.5410 ca        1 MOL     -0.367576
     89 C31        -4.6720    5.9940   -0.3570 ca        1 MOL     -0.090244
     90 C32        -2.8780    7.5700   -0.0570 ca        1 MOL     -0.090244
     91 C33        -4.2430    7.2570    0.0470 ca        1 MOL      0.254546
     92 O14        -5.1790    8.1710    0.4400 oh        1 MOL     -0.442079
     93 H37        -1.5970    2.0370    0.7800 hn        1 MOL      0.144220
     94 H38        -0.0430    4.4760    0.1890 h1        1 MOL      0.038753
     95 H39        -2.0550    3.6130   -1.9540 hc        1 MOL      0.050507
     96 H40        -0.7760    4.8570   -1.9790 hc        1 MOL      0.050507
     97 H41        -4.1270    4.0210   -1.0950 ha        1 MOL      0.169638
     98 H42        -0.9010    6.9240   -0.5940 ha        1 MOL      0.169638
     99 H43        -5.7300    5.7980   -0.3320 ha        1 MOL      0.090385
    100 H44        -2.6180    8.5960    0.1610 ha        1 MOL      0.090385
    101 H45        -4.6800    8.8840    0.8280 ho        1 MOL      0.334035
    102 N10         1.5960    3.2870   -1.1500 n         1 MOL     -0.537574
    103 C34         2.8020    2.6080   -1.6190 c3        1 MOL      0.016026
    104 C35         3.9950    2.8930   -0.6600 c         1 MOL      0.750451
    105 O15         4.6510    2.0020   -0.1780 o         1 MOL     -0.601898
    106 C36         3.1730    3.0650   -3.0340 c3        1 MOL      0.087467
    107 C37         2.0260    2.7670   -3.9670 c3        1 MOL     -0.095286
    108 C38         4.4770    2.4440   -3.5540 c3        1 MOL     -0.164270
    109 C39         1.6040    1.3430   -4.2330 c3        1 MOL     -0.003760
    110 H46         1.5990    4.2970   -1.0970 hn        1 MOL      0.283995
    111 H47         2.6960    1.5220   -1.6160 h1        1 MOL      0.090253
    112 H48         3.3640    4.1310   -3.1360 hc        1 MOL     -0.035409
    113 H49         2.3510    3.2340   -4.9000 hc        1 MOL      0.035671
    114 H50         1.0800    3.2150   -3.6500 hc        1 MOL      0.035671
    115 H51         4.5740    1.3880   -3.3160 hc        1 MOL      0.047473
    116 H52         4.6780    2.5620   -4.6140 hc        1 MOL      0.047473
    117 H53         5.3040    2.8440   -2.9630 hc        1 MOL      0.047473
    118 H54         1.3220    0.7770   -3.3400 hc        1 MOL      0.008792
    119 H55         0.7960    1.3240   -4.9610 hc        1 MOL      0.008792
    120 H56         2.5100    0.8840   -4.6100 hc        1 MOL      0.008792
    121 N11         4.4100    4.1280   -0.4160 n         1 MOL     -0.618289
    122 C40         5.1850    4.4700    0.8050 c3        1 MOL      0.072540
    123 C41         6.6880    4.0650    0.6890 c         1 MOL      0.370780
    124 O16         7.3960    4.0020    1.6860 o         1 MOL     -0.470246
    125 C42         4.9980    5.9380    1.1240 c3        1 MOL      0.176302
    126 O17         3.8080    6.1720    1.7640 oh        1 MOL     -0.572476
    127 H57         3.8660    4.8180   -0.9050 hn        1 MOL      0.325796
    128 H58         4.9050    3.8460    1.6540 h1        1 MOL      0.162615
    129 H59         5.0090    6.5250    0.2010 h1        1 MOL      0.014728
    130 H60         5.8330    6.2840    1.7220 h1        1 MOL      0.014728
    131 H61         3.6580    7.1130    1.6270 ho        1 MOL      0.401071
    132 N12         7.1560    3.6890   -0.5310 n         1 MOL     -0.363334
    133 C43         8.5090    3.1420   -0.6950 c3        1 MOL      0.246235
    134 C44         8.7100    1.8140    0.0980 c         1 MOL      0.451604
    135 O18         9.8150    1.5110    0.4930 o         1 MOL     -0.513805
    136 C45         9.7100    4.0840   -0.5470 c3        1 MOL     -0.332669
    137 H62         6.5200    3.6870   -1.3160 hn        1 MOL      0.224086
    138 H63         8.4980    2.8880   -1.7600 h1        1 MOL      0.022838
    139 H64         9.5100    5.0700   -0.9730 hc        1 MOL      0.097121
    140 H65        10.0330    4.1600    0.4960 hc        1 MOL      0.097121
    141 H66        10.5580    3.6390   -1.0550 hc        1 MOL      0.097121
    142 N13         7.5880    1.1000    0.3380 n         1 MOL     -0.600201
    143 C46         7.6220   -0.0290    1.1900 c3        1 MOL      0.778633
    144 C47         7.1680   -1.2770    0.3590 c         1 MOL      0.110412
    145 O19         6.4260   -1.0780   -0.6100 o         1 MOL     -0.420524
    146 C48         6.7170    0.1580    2.3750 c3        1 MOL     -0.304247
    147 H67         6.7490    1.5670    0.0060 hn        1 MOL      0.263709
    148 H68         8.6180   -0.1570    1.6100 h1        1 MOL     -0.095847
    149 H69         6.7080   -0.7150    3.0250 hc        1 MOL      0.068379
    150 H70         7.0400    1.0290    2.9510 hc        1 MOL      0.068379
    151 H71         5.7970    0.4780    1.9020 hc        1 MOL      0.068379
    152 N14         7.4380   -2.5170    0.7860 n         1 MOL     -0.459757
    153 C49         7.2040   -3.8020    0.0650 c3        1 MOL     -0.026454
    154 C50         7.8350   -4.0070   -1.3380 c         1 MOL      0.424492
    155 O20         8.3500   -5.0790   -1.6290 o         1 MOL     -0.523350
    156 C51         5.7180   -4.1670    0.1210 c3        1 MOL      0.293967
    157 C52         5.4260   -5.6270   -0.3210 c3        1 MOL     -0.656594
    158 C53         3.9880   -5.7650   -0.2660 c         1 MOL      0.908387
    159 O21         3.2580   -5.8810   -1.3300 o         1 MOL     -0.762011
    160 O22         3.3680   -5.7160    0.8410 o         1 MOL     -0.762011
    161 H72         8.0160   -2.6320    1.5990 hn        1 MOL      0.309047
    162 H73         7.7360   -4.4850    0.7300 h1        1 MOL      0.092119
    163 H74         5.0890   -3.5510   -0.5220 hc        1 MOL     -0.027305
    164 H75         5.3260   -4.0020    1.1170 hc        1 MOL     -0.027305
    165 H76         5.9040   -6.3850    0.3050 hc        1 MOL      0.158380
    166 H77         5.7230   -5.6770   -1.3670 hc        1 MOL      0.158380
    167 N15         7.9280   -2.9890   -2.1410 n         1 MOL     -0.152622
    168 C54         8.1840   -2.9800   -3.5550 c3        1 MOL     -0.223029
    169 H78         7.3810   -3.5040   -4.0730 h1        1 MOL      0.097983
    170 H79         8.2330   -1.9500   -3.9090 h1        1 MOL      0.097983
    171 H80         9.1320   -3.4790   -3.7560 h1        1 MOL      0.097983
    172 H81         7.5380   -2.1550   -1.7270 hn        1 MOL      0.204539
    173 Ca1         1.1320   -4.6870   -0.4180 Ca        1 MOL      1.754482
    174 O23         0.8220   -7.3650   -0.3800 oh        1 MOL     -0.848531
    175 H82         0.1070   -7.7770   -0.8600 ho        1 MOL      0.414414
    176 H83         1.3380   -8.1000   -0.0460 ho        1 MOL      0.414414
    177 O24         1.9810   -2.6950   -1.8470 oh        1 MOL     -0.848531
    178 H84         1.5370   -2.3140   -2.6100 ho        1 MOL      0.414414
    179 H85         2.7900   -2.1800   -1.7690 ho        1 MOL      0.414414
    180 O25         0.2450   -5.2090    2.0260 oh        1 MOL     -0.848531
    181 H86        -0.6370   -5.5300    2.2210 ho        1 MOL      0.414414
    182 H87         0.6820   -5.2010    2.8810 ho        1 MOL      0.414414
    183 O26         0.8750   -5.3930   -3.0840 oh        1 MOL     -0.848531
    184 H88         1.6000   -5.5400   -3.6930 ho        1 MOL      0.414414
    185 H89         0.1740   -5.0250   -3.6140 ho        1 MOL      0.414414
@<TRIPOS>BOND
     1    1    2 1   
     2    1    4 1   
     3    1    5 1   
     4    1    6 1   
     5    2    3 2   
     6    2    7 1   
     7    7    8 1   
     8    7   15 1   
     9    8    9 1   
    10    8   11 1   
    11    8   16 1   
    12    9   10 2   
    13    9   19 1   
    14   11   12 1   
    15   11   17 1   
    16   11   18 1   
    17   12   13 1   
    18   12   14 1   
    19   19   20 1   
    20   19   28 1   
    21   20   21 1   
    22   20   23 1   
    23   20   29 1   
    24   21   22 2   
    25   21   41 1   
    26   23   24 1   
    27   23   30 1   
    28   23   31 1   
    29   24   25 1   
    30   24   32 1   
    31   24   33 1   
    32   25   26 1   
    33   25   34 1   
    34   25   35 1   
    35   26   27 1   
    36   26   36 1   
    37   26   37 1   
    38   27   38 1   
    39   27   39 1   
    40   27   40 1   
    41   41   42 1   
    42   41   49 1   
    43   42   43 1   
    44   42   45 1   
    45   42   50 1   
    46   43   44 2   
    47   43   53 1   
    48   45   46 1   
    49   45   51 1   
    50   45   52 1   
    51   46   47 1   
    52   46   48 1   
    53   53   54 1   
    54   53   57 1   
    55   54   55 1   
    56   54   58 1   
    57   54   59 1   
    58   55   56 2   
    59   55   60 1   
    60   60   61 1   
    61   60   68 1   
    62   61   62 1   
    63   61   64 1   
    64   61   69 1   
    65   62   63 2   
    66   62   74 1   
    67   64   65 1   
    68   64   70 1   
    69   64   71 1   
    70   65   66 1   
    71   65   67 2   
    72   66   72 1   
    73   66   73 1   
    74   74   75 1   
    75   74   78 1   
    76   75   76 1   
    77   75   79 1   
    78   75   80 1   
    79   76   77 2   
    80   76   81 1   
    81   81   82 1   
    82   81   93 1   
    83   82   83 1   
    84   82   85 1   
    85   82   94 1   
    86   83   84 2   
    87   83  102 1   
    88   85   86 1   
    89   85   95 1   
    90   85   96 1   
    91   86   87 ar  
    92   86   88 ar  
    93   87   89 ar  
    94   87   97 1   
    95   88   90 ar  
    96   88   98 1   
    97   89   91 ar  
    98   89   99 1   
    99   90   91 ar  
   100   90  100 1   
   101   91   92 1   
   102   92  101 1   
   103  102  103 1   
   104  102  110 1   
   105  103  104 1   
   106  103  106 1   
   107  103  111 1   
   108  104  105 2   
   109  104  121 1   
   110  106  107 1   
   111  106  108 1   
   112  106  112 1   
   113  107  109 1   
   114  107  113 1   
   115  107  114 1   
   116  108  115 1   
   117  108  116 1   
   118  108  117 1   
   119  109  118 1   
   120  109  119 1   
   121  109  120 1   
   122  121  122 1   
   123  121  127 1   
   124  122  123 1   
   125  122  125 1   
   126  122  128 1   
   127  123  124 2   
   128  123  132 1   
   129  125  126 1   
   130  125  129 1   
   131  125  130 1   
   132  126  131 1   
   133  132  133 1   
   134  132  137 1   
   135  133  134 1   
   136  133  136 1   
   137  133  138 1   
   138  134  135 2   
   139  134  142 1   
   140  136  139 1   
   141  136  140 1   
   142  136  141 1   
   143  142  143 1   
   144  142  147 1   
   145  143  144 1   
   146  143  146 1   
   147  143  148 1   
   148  144  145 2   
   149  144  152 1   
   150  146  149 1   
   151  146  150 1   
   152  146  151 1   
   153  152  153 1   
   154  152  161 1   
   155  153  154 1   
   156  153  156 1   
   157  153  162 1   
   158  154  155 2   
   159  154  167 1   
   160  156  157 1   
   161  156  163 1   
   162  156  164 1   
   163  157  158 1   
   164  157  165 1   
   165  157  166 1   
   166  158  159 1   
   167  158  160 1   
   168  167  168 1   
   169  167  172 1   
   170  168  169 1   
   171  168  170 1   
   172  168  171 1   
   173  174  175 1   
   174  174  176 1   
   175  177  178 1   
   176  177  179 1   
   177  180  181 1   
   178  180  182 1   
   179  183  184 1   
   180  183  185 1   
@<TRIPOS>SUBSTRUCTURE
     1 MOL         1 TEMP              0 ****  ****    0 ROOT
