@<TRIPOS>MOLECULE
MOL
  189   185     1     0     0
SMALL
resp


@<TRIPOS>ATOM
      1 C1          8.7260    0.6040    2.6310 c3        1 MOL     -0.531357
      2 C2          7.6900    0.5480    1.4610 c         1 MOL      0.680154
      3 O1          6.4550    0.7060    1.6100 o         1 MOL     -0.648335
      4 H1          8.6040   -0.2740    3.2650 hc        1 MOL      0.137303
      5 H2          9.7360    0.6180    2.2210 hc        1 MOL      0.137303
      6 H3          8.5600    1.5040    3.2220 hc        1 MOL      0.137303
      7 N1          8.2830    0.3160    0.3040 n         1 MOL     -0.229799
      8 C3          7.6530    0.2510   -1.0040 c3        1 MOL     -0.238412
      9 C4          7.1520   -1.1730   -1.3880 c         1 MOL      0.659122
     10 O2          7.2100   -1.6990   -2.5310 o         1 MOL     -0.457763
     11 C5          8.6190    0.9340   -2.0250 c3        1 MOL     -0.163411
     12 C6         10.0820    0.4760   -1.9490 c         1 MOL      0.717968
     13 O3         10.5270    0.0800   -3.0430 o         1 MOL     -0.654721
     14 O4         10.7010    0.5130   -0.8730 o         1 MOL     -0.654721
     15 H4          9.2930    0.3160    0.2830 hn        1 MOL      0.144383
     16 H5          6.7790    0.9050   -1.0100 h1        1 MOL      0.160348
     17 H6          8.7390    1.9800   -1.7390 hc        1 MOL      0.060847
     18 H7          8.3020    0.7660   -3.0560 hc        1 MOL      0.060847
     19 N2          6.6040   -1.8750   -0.3170 n         1 MOL     -0.546020
     20 C7          6.0090   -3.2520   -0.3280 c3        1 MOL      0.092594
     21 C8          4.6060   -3.2690   -0.9610 c         1 MOL      0.471889
     22 O5          4.4720   -3.8580   -1.9900 o         1 MOL     -0.542180
     23 C9          6.0830   -3.9700    1.0080 c3        1 MOL      0.009057
     24 C10         7.5530   -4.1090    1.3420 c3        1 MOL     -0.008074
     25 C11         7.9530   -5.1150    2.3970 c3        1 MOL      0.012174
     26 C12         9.4840   -5.4150    2.2610 c3        1 MOL     -0.018839
     27 N3          9.8960   -6.4290    3.2910 n4        1 MOL     -0.243697
     28 H8          6.5200   -1.3470    0.5450 hn        1 MOL      0.229752
     29 H9          6.6030   -3.8390   -1.0350 h1        1 MOL      0.058652
     30 H10         5.4950   -4.8820    0.9190 hc        1 MOL      0.014340
     31 H11         5.5490   -3.3850    1.7580 hc        1 MOL      0.014340
     32 H12         7.9490   -3.1740    1.7350 hc        1 MOL      0.017625
     33 H13         8.0660   -4.3750    0.4130 hc        1 MOL      0.017625
     34 H14         7.3930   -6.0470    2.2710 hc        1 MOL      0.010542
     35 H15         7.6270   -4.7820    3.3790 hc        1 MOL      0.010542
     36 H16         9.9820   -4.4500    2.3960 hx        1 MOL      0.107721
     37 H17         9.7030   -5.7840    1.2590 hx        1 MOL      0.107721
     38 H18         9.5690   -6.3180    4.2370 hn        1 MOL      0.275896
     39 H19         9.4940   -7.3090    2.9750 hn        1 MOL      0.275896
     40 H20        10.8870   -6.5250    3.4250 hn        1 MOL      0.275896
     41 N4          3.6640   -2.4770   -0.5000 n         1 MOL     -0.268920
     42 C13         3.5230   -1.5980    0.7110 c3        1 MOL      0.003932
     43 C14         3.2830   -0.2050    0.2060 c         1 MOL      0.135776
     44 O6          2.9570   -0.0090   -0.9400 o         1 MOL     -0.315427
     45 C15         2.4140   -2.1890    1.6020 c3        1 MOL     -0.455809
     46 C16         1.1120   -2.4650    0.8030 c         1 MOL      0.700953
     47 O7          0.7560   -1.8460   -0.2430 o         1 MOL     -0.635130
     48 O8          0.3740   -3.4030    1.2430 o         1 MOL     -0.635130
     49 H21         2.9380   -2.1750   -1.1320 hn        1 MOL      0.245204
     50 H22         4.4360   -1.6880    1.2960 h1        1 MOL      0.121670
     51 H23         2.2760   -1.5630    2.4860 hc        1 MOL      0.132395
     52 H24         2.7290   -3.1390    2.0270 hc        1 MOL      0.132395
     53 N5          3.6520    0.6980    1.0700 n         1 MOL     -0.025249
     54 C17         3.7600    2.1320    0.7900 c3        1 MOL     -0.394241
     55 C18         2.6090    2.6900   -0.0750 c         1 MOL      0.552494
     56 O9          1.4520    2.2930    0.0010 o         1 MOL     -0.606512
     57 H25         4.0640    0.3120    1.9050 hn        1 MOL      0.223394
     58 H26         4.7030    2.3070    0.2700 h1        1 MOL      0.165241
     59 H27         3.8030    2.6460    1.7470 h1        1 MOL      0.165241
     60 N6          2.9920    3.5650   -0.9560 n         1 MOL     -0.376217
     61 C19         2.1850    4.3970   -1.9230 c3        1 MOL      0.450909
     62 C20         2.2150    5.8740   -1.6010 c         1 MOL      0.312219
     63 O10         3.3140    6.4020   -1.4960 o         1 MOL     -0.557236
     64 C21         2.6150    4.1100   -3.3550 c3        1 MOL     -0.319160
     65 C22         2.3180    2.7030   -3.7900 c         1 MOL      0.509822
     66 O11         1.4980    2.0390   -3.0770 o         1 MOL     -0.550449
     67 O12         3.0090    2.0860   -4.6460 o         1 MOL     -0.550449
     68 H28         3.9870    3.6740   -1.0540 hn        1 MOL      0.253955
     69 H29         1.1760    4.0050   -1.7570 h1        1 MOL     -0.084335
     70 H30         3.6870    4.2080   -3.5040 hc        1 MOL      0.096175
     71 H31         2.1160    4.8810   -3.9410 hc        1 MOL      0.096175
     72 N7          1.1680    6.5850   -1.4690 n         1 MOL     -0.286038
     73 C23        -0.2590    6.1350   -1.4890 c3        1 MOL     -0.163261
     74 C24        -0.8530    5.6850   -0.1440 c         1 MOL      0.644988
     75 O13        -0.3040    5.8730    0.9780 o         1 MOL     -0.561583
     76 H32         1.3910    7.5550   -1.3550 hn        1 MOL      0.290863
     77 H33        -0.3920    5.3360   -2.2170 h1        1 MOL      0.100376
     78 H34        -0.8220    6.9480   -1.9560 h1        1 MOL      0.100376
     79 N8         -2.0430    5.1060   -0.1170 n         1 MOL     -0.421408
     80 C25        -2.9480    5.2190    1.0940 c3        1 MOL     -0.403963
     81 C26        -2.5740    4.2120    2.1860 c         1 MOL      0.616909
     82 O14        -3.1940    4.1670    3.2310 o         1 MOL     -0.560945
     83 C27        -4.4310    5.2720    0.7920 c3        1 MOL      0.343323
     84 C28        -5.0840    3.9910    0.3380 c3        1 MOL     -0.283180
     85 O15        -4.8180    6.1800   -0.2640 oh        1 MOL     -0.604167
     86 H35        -2.3850    4.8970   -1.0480 hn        1 MOL      0.285303
     87 H36        -2.7120    6.1670    1.5800 h1        1 MOL      0.196426
     88 H37        -4.9970    5.7170    1.6090 h1        1 MOL      0.037744
     89 H38        -4.6350    7.0750    0.0220 ho        1 MOL      0.390951
     90 H39        -4.6700    3.6100   -0.6050 hc        1 MOL      0.092451
     91 H40        -5.1260    3.1250    0.9950 hc        1 MOL      0.092451
     92 H41        -6.1340    4.2040    0.1520 hc        1 MOL      0.092451
     93 N9         -1.5710    3.3290    1.8990 n         1 MOL     -0.122572
     94 C29        -1.2010    2.1620    2.7840 c3        1 MOL     -0.254490
     95 C30        -1.4220    0.8090    2.0950 c         1 MOL      0.032934
     96 O16        -0.7750    0.5290    1.0850 o         1 MOL     -0.286170
     97 C31         0.2270    2.2440    3.2830 c3        1 MOL      0.221323
     98 C32         0.4420    3.4950    4.1520 c3        1 MOL     -0.013677
     99 C33         0.7100    0.9890    4.1360 c3        1 MOL     -0.453095
    100 C34        -0.4370    3.7250    5.4230 c3        1 MOL     -0.179515
    101 H42        -1.1030    3.3980    1.0040 hn        1 MOL      0.238836
    102 H43        -1.9400    2.1950    3.5930 h1        1 MOL      0.127916
    103 H44         0.9650    2.4420    2.5150 hc        1 MOL      0.021706
    104 H45         0.2760    4.3130    3.4570 hc        1 MOL      0.020639
    105 H46         1.4690    3.5050    4.5100 hc        1 MOL      0.020639
    106 H47         1.4830    1.1630    4.8760 hc        1 MOL      0.119673
    107 H48        -0.1530    0.4450    4.5200 hc        1 MOL      0.119673
    108 H49         1.2110    0.3110    3.4430 hc        1 MOL      0.119673
    109 H50        -0.2790    4.7370    5.7870 hc        1 MOL      0.041154
    110 H51        -1.5090    3.6700    5.2150 hc        1 MOL      0.041154
    111 H52        -0.1200    3.0480    6.2110 hc        1 MOL      0.041154
    112 N10        -2.2850   -0.0120    2.6970 n         1 MOL      0.085535
    113 C35        -2.5100   -1.4270    2.4610 c3        1 MOL     -0.212278
    114 C36        -3.9980   -1.8000    2.0920 c         1 MOL      0.402398
    115 O17        -4.3510   -2.9320    1.8940 o         1 MOL     -0.521597
    116 C37        -2.0510   -2.2650    3.6140 c3        1 MOL      0.539025
    117 C38        -2.4990   -1.8120    4.9880 c3        1 MOL     -0.293448
    118 O18        -0.6690   -2.2880    3.5420 oh        1 MOL     -0.646751
    119 H53        -2.7140    0.3190    3.5600 hn        1 MOL      0.174263
    120 H54        -1.9200   -1.7310    1.5960 h1        1 MOL      0.195676
    121 H55        -2.3900   -3.2980    3.4850 h1        1 MOL     -0.048811
    122 H56        -0.3300   -2.7080    2.7420 ho        1 MOL      0.338754
    123 H57        -1.9500   -0.8970    5.1720 hc        1 MOL      0.059381
    124 H58        -3.5830   -1.6530    5.0340 hc        1 MOL      0.059381
    125 H59        -2.1550   -2.5370    5.7230 hc        1 MOL      0.059381
    126 N11        -4.8700   -0.7770    2.0970 n         1 MOL     -0.138250
    127 C39        -6.2950   -0.8960    1.8400 c3        1 MOL     -0.334667
    128 C40        -6.5640   -1.2750    0.4150 c         1 MOL      0.455788
    129 O19        -6.6100   -0.3870   -0.4870 o         1 MOL     -0.459903
    130 C41        -6.9480    0.5010    2.0740 c3        1 MOL      0.470681
    131 C42        -8.4430    0.5330    1.9940 c3        1 MOL     -0.597742
    132 O20        -6.4940    0.9980    3.3060 oh        1 MOL     -0.637891
    133 H60        -4.5140    0.1230    2.3850 hn        1 MOL      0.176665
    134 H61        -6.6750   -1.6220    2.5640 h1        1 MOL      0.142752
    135 H62        -6.5570    1.1920    1.3350 h1        1 MOL      0.022547
    136 H63        -7.2360    1.4500    3.6990 ho        1 MOL      0.407339
    137 H64        -8.9480    0.2770    2.9290 hc        1 MOL      0.156677
    138 H65        -8.7640    1.5380    1.7500 hc        1 MOL      0.156677
    139 H66        -8.7180   -0.2110    1.2480 hc        1 MOL      0.156677
    140 N12        -6.9100   -2.5650    0.1690 n         1 MOL     -0.349748
    141 C43        -7.0700   -3.1000   -1.1850 c3        1 MOL      0.205916
    142 C44        -5.8520   -2.5750   -2.0030 c         1 MOL      0.393516
    143 O21        -5.9840   -1.8070   -2.9750 o         1 MOL     -0.461916
    144 C45        -8.4140   -2.5570   -1.8400 c3        1 MOL     -0.539248
    145 C46        -9.6320   -2.9500   -1.0100 c3        1 MOL      0.018437
    146 C47       -10.8910   -3.0040   -1.7680 c3        1 MOL      0.162359
    147 C48       -12.0670   -3.3470   -0.8960 c3        1 MOL      0.014580
    148 N13       -13.4320   -3.2920   -1.5370 n4        1 MOL     -0.195074
    149 H67        -7.0250   -3.1410    0.9940 hn        1 MOL      0.244965
    150 H68        -6.9230   -4.1770   -1.1580 h1        1 MOL      0.063208
    151 H69        -8.5310   -2.9890   -2.8260 hc        1 MOL      0.198693
    152 H70        -8.4900   -1.4740   -1.9340 hc        1 MOL      0.198693
    153 H71        -9.7910   -2.1870   -0.2480 hc        1 MOL      0.021959
    154 H72        -9.5780   -3.9280   -0.5220 hc        1 MOL      0.021959
    155 H73       -10.8020   -3.6000   -2.6770 hc        1 MOL     -0.017339
    156 H74       -11.1480   -2.0290   -2.1840 hc        1 MOL     -0.017339
    157 H75       -12.0660   -2.6610   -0.0510 hx        1 MOL      0.045993
    158 H76       -11.8300   -4.3380   -0.5080 hx        1 MOL      0.045993
    159 H77       -13.6910   -2.3220   -1.5770 hn        1 MOL      0.224695
    160 H78       -13.4560   -3.6580   -2.4800 hn        1 MOL      0.224695
    161 H79       -14.1530   -3.7600   -0.9930 hn        1 MOL      0.224695
    162 N14        -4.6170   -2.9730   -1.6280 n         1 MOL     -0.490824
    163 C49        -3.4080   -2.4000   -2.1500 c3        1 MOL      0.287372
    164 C50        -2.3690   -2.3000   -1.0270 c         1 MOL      0.685747
    165 O22        -1.8420   -1.2380   -0.7820 o         1 MOL     -0.863044
    166 C51        -2.8420   -3.0360   -3.4630 c3        1 MOL     -0.400382
    167 C52        -1.5400   -2.3980   -3.9900 c3        1 MOL      0.405555
    168 C53        -1.6430   -0.9370   -4.3990 c         1 MOL      0.546393
    169 O23        -1.3780   -0.0910   -3.5300 o         1 MOL     -0.643673
    170 O24        -1.8290   -0.5750   -5.6200 o         1 MOL     -0.643673
    171 H80        -4.5120   -3.7420   -0.9860 hn        1 MOL      0.252127
    172 H81        -3.5260   -1.4190   -2.5860 h1        1 MOL      0.050447
    173 H82        -3.5640   -3.0270   -4.2760 hc        1 MOL      0.085917
    174 H83        -2.4760   -4.0370   -3.2250 hc        1 MOL      0.085917
    175 H84        -1.3440   -2.9330   -4.9120 hc        1 MOL     -0.126024
    176 H85        -0.7450   -2.6320   -3.2850 hc        1 MOL     -0.126024
    177 N15        -2.0270   -3.3680   -0.2870 n         1 MOL     -0.218599
    178 C54        -2.3720   -4.8260   -0.4580 c3        1 MOL     -0.212585
    179 H86        -3.2200   -5.0750    0.1820 h1        1 MOL      0.083305
    180 H87        -2.6340   -5.0190   -1.4980 h1        1 MOL      0.083305
    181 H88        -1.5140   -5.4380   -0.1780 h1        1 MOL      0.083305
    182 H89        -1.1840   -3.2010    0.2590 hn        1 MOL      0.214368
    183 Ca1         0.1680    0.3430   -1.4940 Ca        1 MOL      1.709988
    184 O25         1.4170   -1.0890   -3.3230 oh        1 MOL     -0.928689
    185 H90         1.0160   -1.9580   -3.3250 ho        1 MOL      0.442323
    186 H91         2.1580   -1.1610   -3.9390 ho        1 MOL      0.442323
    187 O26        -1.8450    2.1830   -1.9270 oh        1 MOL     -0.928689
    188 H92        -2.1910    2.0200   -2.8100 ho        1 MOL      0.442323
    189 H93        -2.6180    2.2850   -1.3770 ho        1 MOL      0.442323
@<TRIPOS>BOND
     1    1    2 1   
     2    1    4 1   
     3    1    5 1   
     4    1    6 1   
     5    2    3 2   
     6    2    7 1   
     7    7    8 1   
     8    7   15 1   
     9    8    9 1   
    10    8   11 1   
    11    8   16 1   
    12    9   10 2   
    13    9   19 1   
    14   11   12 1   
    15   11   17 1   
    16   11   18 1   
    17   12   13 1   
    18   12   14 1   
    19   19   20 1   
    20   19   28 1   
    21   20   21 1   
    22   20   23 1   
    23   20   29 1   
    24   21   22 2   
    25   21   41 1   
    26   23   24 1   
    27   23   30 1   
    28   23   31 1   
    29   24   25 1   
    30   24   32 1   
    31   24   33 1   
    32   25   26 1   
    33   25   34 1   
    34   25   35 1   
    35   26   27 1   
    36   26   36 1   
    37   26   37 1   
    38   27   38 1   
    39   27   39 1   
    40   27   40 1   
    41   41   42 1   
    42   41   49 1   
    43   42   43 1   
    44   42   45 1   
    45   42   50 1   
    46   43   44 2   
    47   43   53 1   
    48   45   46 1   
    49   45   51 1   
    50   45   52 1   
    51   46   47 1   
    52   46   48 1   
    53   53   54 1   
    54   53   57 1   
    55   54   55 1   
    56   54   58 1   
    57   54   59 1   
    58   55   56 2   
    59   55   60 1   
    60   60   61 1   
    61   60   68 1   
    62   61   62 1   
    63   61   64 1   
    64   61   69 1   
    65   62   63 2   
    66   62   72 1   
    67   64   65 1   
    68   64   70 1   
    69   64   71 1   
    70   65   66 1   
    71   65   67 1   
    72   72   73 1   
    73   72   76 1   
    74   73   74 1   
    75   73   77 1   
    76   73   78 1   
    77   74   75 2   
    78   74   79 1   
    79   79   80 1   
    80   79   86 1   
    81   80   81 1   
    82   80   83 1   
    83   80   87 1   
    84   81   82 2   
    85   81   93 1   
    86   83   84 1   
    87   83   85 1   
    88   83   88 1   
    89   84   90 1   
    90   84   91 1   
    91   84   92 1   
    92   85   89 1   
    93   93   94 1   
    94   93  101 1   
    95   94   95 1   
    96   94   97 1   
    97   94  102 1   
    98   95   96 2   
    99   95  112 1   
   100   97   98 1   
   101   97   99 1   
   102   97  103 1   
   103   98  100 1   
   104   98  104 1   
   105   98  105 1   
   106   99  106 1   
   107   99  107 1   
   108   99  108 1   
   109  100  109 1   
   110  100  110 1   
   111  100  111 1   
   112  112  113 1   
   113  112  119 1   
   114  113  114 1   
   115  113  116 1   
   116  113  120 1   
   117  114  115 2   
   118  114  126 1   
   119  116  117 1   
   120  116  118 1   
   121  116  121 1   
   122  117  123 1   
   123  117  124 1   
   124  117  125 1   
   125  118  122 1   
   126  126  127 1   
   127  126  133 1   
   128  127  128 1   
   129  127  130 1   
   130  127  134 1   
   131  128  129 2   
   132  128  140 1   
   133  130  131 1   
   134  130  132 1   
   135  130  135 1   
   136  131  137 1   
   137  131  138 1   
   138  131  139 1   
   139  132  136 1   
   140  140  141 1   
   141  140  149 1   
   142  141  142 1   
   143  141  144 1   
   144  141  150 1   
   145  142  143 2   
   146  142  162 1   
   147  144  145 1   
   148  144  151 1   
   149  144  152 1   
   150  145  146 1   
   151  145  153 1   
   152  145  154 1   
   153  146  147 1   
   154  146  155 1   
   155  146  156 1   
   156  147  148 1   
   157  147  157 1   
   158  147  158 1   
   159  148  159 1   
   160  148  160 1   
   161  148  161 1   
   162  162  163 1   
   163  162  171 1   
   164  163  164 1   
   165  163  166 1   
   166  163  172 1   
   167  164  165 2   
   168  164  177 1   
   169  166  167 1   
   170  166  173 1   
   171  166  174 1   
   172  167  168 1   
   173  167  175 1   
   174  167  176 1   
   175  168  169 1   
   176  168  170 1   
   177  177  178 1   
   178  177  182 1   
   179  178  179 1   
   180  178  180 1   
   181  178  181 1   
   182  184  185 1   
   183  184  186 1   
   184  187  188 1   
   185  187  189 1   
@<TRIPOS>SUBSTRUCTURE
     1 MOL         1 TEMP              0 ****  ****    0 ROOT
