@<TRIPOS>MOLECULE
MOL
  189   185     1     0     0
SMALL
resp


@<TRIPOS>ATOM
      1 C1          5.0680    4.5660   -3.0670 c3        1 MOL     -0.409997
      2 C2          5.6450    3.7760   -1.9270 c         1 MOL      0.903302
      3 O1          4.9700    3.4310   -0.8930 o         1 MOL     -0.660385
      4 H1          5.3130    4.0760   -4.0090 hc        1 MOL      0.102994
      5 H2          3.9850    4.6240   -2.9590 hc        1 MOL      0.102994
      6 H3          5.4870    5.5730   -3.0620 hc        1 MOL      0.102994
      7 N1          6.9420    3.3690   -2.0550 n         1 MOL     -0.712360
      8 C3          7.5890    2.2390   -1.3660 c3        1 MOL      0.365789
      9 C4          6.6390    1.0410   -1.1860 c         1 MOL      0.304204
     10 O2          6.1740    0.6180   -0.1330 o         1 MOL     -0.601844
     11 C5          8.2900    2.6210   -0.0670 c3        1 MOL     -0.227022
     12 C6          7.5750    3.7130    0.7320 c         1 MOL      0.779711
     13 O3          6.5380    3.4180    1.2920 o         1 MOL     -0.740327
     14 O4          8.0190    4.8430    0.8290 o         1 MOL     -0.740327
     15 H4          7.5020    3.5720   -2.8660 hn        1 MOL      0.308332
     16 H5          8.4570    1.8410   -1.8990 h1        1 MOL      0.002700
     17 H6          9.3250    2.9410   -0.1760 hc        1 MOL      0.028829
     18 H7          8.4540    1.7350    0.5500 hc        1 MOL      0.028829
     19 N2          6.1680    0.7530   -2.4070 n         1 MOL     -0.456288
     20 C7          5.2710   -0.3630   -2.8500 c3        1 MOL      0.173603
     21 C8          5.8250   -1.7070   -2.4810 c         1 MOL      0.309345
     22 O5          5.8260   -2.6200   -3.3380 o         1 MOL     -0.552791
     23 C9          3.8310   -0.1680   -2.4290 c3        1 MOL      0.090425
     24 C10         2.8300   -1.3090   -2.8700 c3        1 MOL     -0.081555
     25 C11         3.2930    1.2150   -2.9530 c3        1 MOL      0.032025
     26 C12         2.5640   -1.4120   -4.3880 c3        1 MOL     -0.315398
     27 H8          6.5980    1.2580   -3.1720 hn        1 MOL      0.249917
     28 H9          5.2530   -0.4800   -3.9320 h1        1 MOL      0.023971
     29 H10         3.8470   -0.1050   -1.3400 hc        1 MOL     -0.021341
     30 H11         1.8880   -1.0890   -2.3790 hc        1 MOL      0.100578
     31 H12         3.1640   -2.2210   -2.3690 hc        1 MOL      0.100578
     32 H13         3.3190    1.1440   -4.0450 hc        1 MOL     -0.028726
     33 H14         2.2690    1.3830   -2.6000 hc        1 MOL     -0.028726
     34 H15         3.9200    2.0630   -2.6850 hc        1 MOL     -0.028726
     35 H16         2.0830   -0.5610   -4.8760 hc        1 MOL      0.080288
     36 H17         3.4560   -1.6120   -4.9710 hc        1 MOL      0.080288
     37 H18         1.8980   -2.2720   -4.5310 hc        1 MOL      0.080288
     38 N3          6.3370   -2.0060   -1.2940 n         1 MOL     -0.128113
     39 C13         7.1000   -3.1030   -0.9290 c3        1 MOL      0.015973
     40 C14         6.2030   -4.3390   -0.7150 c         1 MOL      0.610457
     41 O6          6.4910   -5.4380   -1.2670 o         1 MOL     -0.581849
     42 C15         7.8870   -2.7130    0.3500 c3        1 MOL     -0.401752
     43 C16         8.7450   -3.8480    0.9280 c         1 MOL      0.764170
     44 O7          9.1880   -4.7010    0.1160 o         1 MOL     -0.738479
     45 O8          9.0740   -3.9190    2.1200 o         1 MOL     -0.738479
     46 H19         6.2900   -1.3520   -0.5240 hn        1 MOL      0.298463
     47 H20         7.7620   -3.3340   -1.7640 h1        1 MOL      0.065493
     48 H21         7.2390   -2.3760    1.1730 hc        1 MOL      0.103466
     49 H22         8.6140   -1.9000    0.2730 hc        1 MOL      0.103466
     50 N4          4.9910   -4.3170   -0.1780 n         1 MOL     -0.507430
     51 C17         4.3900   -3.3940    0.7420 c3        1 MOL      0.312723
     52 C18         4.6800   -3.4390    2.2380 c         1 MOL      0.361218
     53 O9          5.7100   -3.9960    2.6340 o         1 MOL     -0.473698
     54 H23         4.4880   -5.0860   -0.5780 hn        1 MOL      0.270723
     55 H24         3.3050   -3.3850    0.5950 h1        1 MOL     -0.058916
     56 H25         4.7560   -2.4020    0.4570 h1        1 MOL     -0.058916
     57 N5          3.9260   -2.7030    3.0960 n         1 MOL     -0.386187
     58 C19         2.6120   -2.1770    2.8160 c3        1 MOL     -0.010322
     59 C20         2.5630   -1.1460    1.7130 c         1 MOL      0.304937
     60 O10         3.4950   -0.3620    1.4540 o         1 MOL     -0.499059
     61 C21         1.9890   -1.6880    4.1170 c3        1 MOL     -0.205098
     62 C22         2.7460   -0.6070    4.6770 c         1 MOL      0.784530
     63 O11         3.8140   -0.8740    5.2830 o         1 MOL     -0.712174
     64 O12         2.3740    0.5670    4.4870 o         1 MOL     -0.712174
     65 H26         4.4540   -2.4840    3.9320 hn        1 MOL      0.305185
     66 H27         2.0290   -2.9570    2.3210 h1        1 MOL      0.068022
     67 H28         1.9780   -2.4830    4.8750 hc        1 MOL      0.056128
     68 H29         0.9790   -1.2970    3.9800 hc        1 MOL      0.056128
     69 N6          1.3890   -0.8560    1.0780 n         1 MOL     -0.092544
     70 C23        -0.0070   -1.4470    1.2660 c3        1 MOL      0.086772
     71 C24        -0.3940   -2.4960    0.2190 c         1 MOL      0.430583
     72 O13         0.3560   -2.7660   -0.7320 o         1 MOL     -0.429991
     73 H30         1.6010   -0.2610    0.2840 hn        1 MOL      0.035904
     74 H31        -0.8180   -0.7380    1.1290 h1        1 MOL      0.038326
     75 H32        -0.0090   -1.9610    2.2240 h1        1 MOL      0.038326
     76 N7         -1.6000   -3.1770    0.5130 n         1 MOL     -0.429805
     77 C25        -2.2620   -4.1450   -0.3650 c3        1 MOL      0.058294
     78 C26        -2.3230   -3.8110   -1.9030 c         1 MOL      0.323383
     79 O14        -2.1790   -4.7510   -2.7550 o         1 MOL     -0.516369
     80 C27        -3.7440   -4.3300    0.0860 c3        1 MOL     -0.057186
     81 C28        -3.9080   -4.7330    1.6600 c3        1 MOL     -0.441179
     82 C29        -5.3460   -5.2270    2.0320 c         1 MOL      0.729370
     83 N8         -5.6540   -6.4070    1.7010 n         1 MOL     -0.785167
     84 O15        -6.1230   -4.5950    2.7200 o         1 MOL     -0.539678
     85 H33        -1.9610   -2.9000    1.4210 hn        1 MOL      0.301158
     86 H34        -1.6930   -5.0640   -0.2130 h1        1 MOL      0.088422
     87 H35        -4.2890   -5.0690   -0.4840 hc        1 MOL      0.057072
     88 H36        -4.2560   -3.3730   -0.0010 hc        1 MOL      0.057072
     89 H37        -3.6690   -3.8010    2.1870 hc        1 MOL      0.135177
     90 H38        -3.1870   -5.5170    1.8720 hc        1 MOL      0.135177
     91 H39        -4.8940   -6.9180    1.2720 hn        1 MOL      0.361102
     92 H40        -6.5520   -6.8390    1.8770 hn        1 MOL      0.361102
     93 N9         -2.7000   -2.6100   -2.2460 n         1 MOL     -0.159343
     94 C30        -3.1990   -2.3250   -3.6660 c3        1 MOL     -0.245467
     95 C31        -4.6570   -1.8580   -3.7720 c         1 MOL      0.721805
     96 O16        -5.2040   -1.9120   -4.8250 o         1 MOL     -0.566766
     97 C32        -2.2660   -1.4210   -4.4550 c3        1 MOL      0.263974
     98 C33        -0.8770   -2.0690   -4.5910 c3        1 MOL     -0.261969
     99 C34        -2.0640   -0.1030   -3.7850 c3        1 MOL     -0.261969
    100 H41        -2.9180   -1.9290   -1.5300 hn        1 MOL      0.218669
    101 H42        -3.2600   -3.3080   -4.1220 h1        1 MOL      0.132622
    102 H43        -2.7140   -1.3530   -5.4420 hc        1 MOL     -0.003828
    103 H44        -0.1630   -1.3060   -4.9270 hc        1 MOL      0.055318
    104 H45        -0.4410   -2.5350   -3.7080 hc        1 MOL      0.055318
    105 H46        -1.0140   -2.8110   -5.3730 hc        1 MOL      0.055318
    106 H47        -2.9860    0.4810   -3.8520 hc        1 MOL      0.055318
    107 H48        -1.8940   -0.1340   -2.7050 hc        1 MOL      0.055318
    108 H49        -1.2210    0.4690   -4.1610 hc        1 MOL      0.055318
    109 N10        -5.3340   -1.5450   -2.6450 n         1 MOL     -0.472810
    110 C35        -6.6980   -1.0840   -2.5830 c3        1 MOL     -0.032542
    111 C36        -6.9490    0.2130   -1.8230 c         1 MOL      0.691079
    112 O17        -7.8720    0.9820   -2.2250 o         1 MOL     -0.615577
    113 C37        -7.4990   -2.2340   -2.0690 c3        1 MOL     -0.115339
    114 C38        -7.1530   -2.6480   -0.6120 c         1 MOL      0.408684
    115 N11        -7.9660   -3.5360   -0.0350 n         1 MOL     -0.556698
    116 O18        -6.2910   -2.1220    0.0840 o         1 MOL     -0.404894
    117 H50        -4.9400   -1.7290   -1.7420 hn        1 MOL      0.182969
    118 H51        -6.9240   -0.8980   -3.6360 h1        1 MOL      0.105251
    119 H52        -7.4010   -3.0810   -2.7600 hc        1 MOL      0.066553
    120 H53        -8.5650   -2.0340   -2.1520 hc        1 MOL      0.066553
    121 H54        -8.5900   -4.1240   -0.5640 hn        1 MOL      0.298170
    122 H55        -7.6790   -3.8520    0.8830 hn        1 MOL      0.298170
    123 N12        -6.1280    0.5500   -0.8250 n         1 MOL     -0.533921
    124 C39        -6.1830    1.7870   -0.1620 c3        1 MOL      0.111854
    125 C40        -4.7600    2.4110    0.0670 c         1 MOL      0.450362
    126 O19        -3.7470    1.8970   -0.3460 o         1 MOL     -0.439091
    127 C41        -6.8260    1.5720    1.2300 c3        1 MOL     -0.062970
    128 C42        -8.2350    1.0200    1.2990 ca        1 MOL     -0.142960
    129 C43        -8.5640   -0.2330    1.8960 ca        1 MOL      0.058871
    130 C44        -9.2310    1.8770    0.8600 ca        1 MOL      0.058871
    131 C45        -9.8700   -0.6480    1.9280 ca        1 MOL     -0.371779
    132 C46       -10.5260    1.5030    0.9800 ca        1 MOL     -0.371779
    133 C47       -10.8630    0.2430    1.4780 ca        1 MOL      0.391030
    134 O20       -12.1910   -0.0530    1.6100 oh        1 MOL     -0.516383
    135 H56        -5.4550   -0.1210   -0.4890 hn        1 MOL      0.313831
    136 H57        -6.7520    2.5180   -0.7230 h1        1 MOL      0.047181
    137 H58        -6.9560    2.5820    1.6270 hc        1 MOL      0.068803
    138 H59        -6.2000    0.9910    1.9060 hc        1 MOL      0.068803
    139 H60        -7.7640   -0.8550    2.2640 ha        1 MOL      0.083827
    140 H61        -9.0280    2.8750    0.5280 ha        1 MOL      0.083827
    141 H62       -10.1620   -1.6060    2.3350 ha        1 MOL      0.150415
    142 H63       -11.3660    2.1230    0.6970 ha        1 MOL      0.150415
    143 H64       -12.7990    0.5450    1.1650 ho        1 MOL      0.349534
    144 N13        -4.7540    3.5480    0.8140 n         1 MOL     -0.444436
    145 C48        -3.6390    4.1530    1.4420 c3        1 MOL      0.087552
    146 C49        -2.4680    4.6010    0.6240 c         1 MOL      0.267733
    147 O21        -1.9980    5.6860    0.6940 o         1 MOL     -0.516617
    148 C50        -3.1670    3.3230    2.6840 c3        1 MOL      0.189197
    149 C51        -4.2330    2.8090    3.6680 c3        1 MOL     -0.133364
    150 C52        -3.5640    1.8500    4.6710 c         1 MOL      0.600550
    151 O22        -3.6200    0.6040    4.4450 o         1 MOL     -0.692804
    152 O23        -2.8370    2.3240    5.6400 o         1 MOL     -0.692804
    153 H65        -5.6160    4.0580    0.9320 hn        1 MOL      0.289711
    154 H66        -4.0620    5.0630    1.8600 h1        1 MOL      0.007279
    155 H67        -2.5110    3.9640    3.2560 hc        1 MOL      0.006232
    156 H68        -2.5960    2.5260    2.2130 hc        1 MOL      0.006232
    157 H69        -4.9010    2.1970    3.0590 hc        1 MOL     -0.036080
    158 H70        -4.6220    3.6810    4.2020 hc        1 MOL     -0.036080
    159 N14        -1.9240    3.7700   -0.2230 n         1 MOL     -0.013728
    160 C53        -0.9100    4.1910   -1.2110 c3        1 MOL     -0.284282
    161 C54        -1.4490    5.2230   -2.2380 c         1 MOL      0.454029
    162 O24        -0.6130    5.9210   -2.7950 o         1 MOL     -0.563657
    163 C55        -0.3400    2.9060   -1.8820 c3        1 MOL      0.085034
    164 C56        -0.1070    1.7520   -0.9150 c3        1 MOL     -0.065850
    165 C57         1.0100    2.1410    0.0920 c         1 MOL      0.397703
    166 O25         2.2420    1.9030   -0.1880 o         1 MOL     -0.557142
    167 O26         0.6730    2.4400    1.2540 o         1 MOL     -0.557142
    168 H71        -2.3480    2.8540   -0.2600 hn        1 MOL      0.159998
    169 H72        -0.0690    4.6570   -0.6930 h1        1 MOL      0.213386
    170 H73         0.5230    2.9940   -2.5460 hc        1 MOL     -0.009656
    171 H74        -1.0450    2.4820   -2.5890 hc        1 MOL     -0.009656
    172 H75         0.2120    0.8370   -1.4130 hc        1 MOL      0.037684
    173 H76        -1.0310    1.4110   -0.4460 hc        1 MOL      0.037684
    174 N15        -2.6840    5.3820   -2.3920 n         1 MOL     -0.084375
    175 C58        -3.4160    6.4640   -3.0280 c3        1 MOL     -0.334339
    176 H77        -3.5460    6.2410   -4.0870 h1        1 MOL      0.122229
    177 H78        -4.3930    6.5690   -2.5580 h1        1 MOL      0.122229
    178 H79        -2.8580    7.3950   -2.9190 h1        1 MOL      0.122229
    179 H80        -3.2880    4.7320   -1.9060 hn        1 MOL      0.137104
    180 Ca1         4.3020    2.0100    1.2970 Ca        1 MOL      1.827230
    181 O27         6.0640    1.0220    3.1620 oh        1 MOL     -0.881184
    182 H81         6.7460    0.4290    2.8430 ho        1 MOL      0.417777
    183 H82         6.0680    0.8910    4.1140 ho        1 MOL      0.417777
    184 O28         3.7170    2.7020    4.1310 oh        1 MOL     -0.881184
    185 H83         3.9280    3.0100    5.0100 ho        1 MOL      0.417777
    186 H84         3.2860    1.8580    4.2590 ho        1 MOL      0.417777
    187 O29         3.2080    4.4300    1.2350 oh        1 MOL     -0.881184
    188 H85         2.4450    4.8470    1.6280 ho        1 MOL      0.417777
    189 H86         3.4200    4.9940    0.4870 ho        1 MOL      0.417777
@<TRIPOS>BOND
     1    1    2 1   
     2    1    4 1   
     3    1    5 1   
     4    1    6 1   
     5    2    3 2   
     6    2    7 1   
     7    7    8 1   
     8    7   15 1   
     9    8    9 1   
    10    8   11 1   
    11    8   16 1   
    12    9   10 2   
    13    9   19 1   
    14   11   12 1   
    15   11   17 1   
    16   11   18 1   
    17   12   13 1   
    18   12   14 1   
    19   19   20 1   
    20   19   27 1   
    21   20   21 1   
    22   20   23 1   
    23   20   28 1   
    24   21   22 2   
    25   21   38 1   
    26   23   24 1   
    27   23   25 1   
    28   23   29 1   
    29   24   26 1   
    30   24   30 1   
    31   24   31 1   
    32   25   32 1   
    33   25   33 1   
    34   25   34 1   
    35   26   35 1   
    36   26   36 1   
    37   26   37 1   
    38   38   39 1   
    39   38   46 1   
    40   39   40 1   
    41   39   42 1   
    42   39   47 1   
    43   40   41 2   
    44   40   50 1   
    45   42   43 1   
    46   42   48 1   
    47   42   49 1   
    48   43   44 1   
    49   43   45 1   
    50   50   51 1   
    51   50   54 1   
    52   51   52 1   
    53   51   55 1   
    54   51   56 1   
    55   52   53 2   
    56   52   57 1   
    57   57   58 1   
    58   57   65 1   
    59   58   59 1   
    60   58   61 1   
    61   58   66 1   
    62   59   60 2   
    63   59   69 1   
    64   61   62 1   
    65   61   67 1   
    66   61   68 1   
    67   62   63 1   
    68   62   64 1   
    69   69   70 1   
    70   69   73 1   
    71   70   71 1   
    72   70   74 1   
    73   70   75 1   
    74   71   72 2   
    75   71   76 1   
    76   76   77 1   
    77   76   85 1   
    78   77   78 1   
    79   77   80 1   
    80   77   86 1   
    81   78   79 2   
    82   78   93 1   
    83   80   81 1   
    84   80   87 1   
    85   80   88 1   
    86   81   82 1   
    87   81   89 1   
    88   81   90 1   
    89   82   83 1   
    90   82   84 2   
    91   83   91 1   
    92   83   92 1   
    93   93   94 1   
    94   93  100 1   
    95   94   95 1   
    96   94   97 1   
    97   94  101 1   
    98   95   96 2   
    99   95  109 1   
   100   97   98 1   
   101   97   99 1   
   102   97  102 1   
   103   98  103 1   
   104   98  104 1   
   105   98  105 1   
   106   99  106 1   
   107   99  107 1   
   108   99  108 1   
   109  109  110 1   
   110  109  117 1   
   111  110  111 1   
   112  110  113 1   
   113  110  118 1   
   114  111  112 2   
   115  111  123 1   
   116  113  114 1   
   117  113  119 1   
   118  113  120 1   
   119  114  115 1   
   120  114  116 2   
   121  115  121 1   
   122  115  122 1   
   123  123  124 1   
   124  123  135 1   
   125  124  125 1   
   126  124  127 1   
   127  124  136 1   
   128  125  126 2   
   129  125  144 1   
   130  127  128 1   
   131  127  137 1   
   132  127  138 1   
   133  128  129 ar  
   134  128  130 ar  
   135  129  131 ar  
   136  129  139 1   
   137  130  132 ar  
   138  130  140 1   
   139  131  133 ar  
   140  131  141 1   
   141  132  133 ar  
   142  132  142 1   
   143  133  134 1   
   144  134  143 1   
   145  144  145 1   
   146  144  153 1   
   147  145  146 1   
   148  145  148 1   
   149  145  154 1   
   150  146  147 2   
   151  146  159 1   
   152  148  149 1   
   153  148  155 1   
   154  148  156 1   
   155  149  150 1   
   156  149  157 1   
   157  149  158 1   
   158  150  151 1   
   159  150  152 1   
   160  159  160 1   
   161  159  168 1   
   162  160  161 1   
   163  160  163 1   
   164  160  169 1   
   165  161  162 2   
   166  161  174 1   
   167  163  164 1   
   168  163  170 1   
   169  163  171 1   
   170  164  165 1   
   171  164  172 1   
   172  164  173 1   
   173  165  166 1   
   174  165  167 1   
   175  174  175 1   
   176  174  179 1   
   177  175  176 1   
   178  175  177 1   
   179  175  178 1   
   180  181  182 1   
   181  181  183 1   
   182  184  185 1   
   183  184  186 1   
   184  187  188 1   
   185  187  189 1   
@<TRIPOS>SUBSTRUCTURE
     1 MOL         1 TEMP              0 ****  ****    0 ROOT
