@<TRIPOS>MOLECULE
MOL
  192   187     1     0     0
SMALL
resp


@<TRIPOS>ATOM
      1 C1         -6.1100   -3.0950    5.1670 c3        1 MOL     -0.299759
      2 C2         -5.5390   -2.4980    3.9030 c         1 MOL      0.760302
      3 O1         -5.3840   -3.2530    2.9600 o         1 MOL     -0.586917
      4 H1         -6.9020   -2.4490    5.5480 hc        1 MOL      0.068149
      5 H2         -6.5200   -4.0820    4.9510 hc        1 MOL      0.068149
      6 H3         -5.3230   -3.1830    5.9160 hc        1 MOL      0.068149
      7 N1         -5.5580   -1.1390    3.7770 n         1 MOL     -0.479037
      8 C3         -5.2370   -0.4410    2.5280 c3        1 MOL      0.410695
      9 C4         -3.6840   -0.3820    2.1680 c         1 MOL     -0.129344
     10 O2         -3.2650    0.1860    1.1720 o         1 MOL     -0.087556
     11 C5         -5.7160    0.9380    2.6060 c3        1 MOL     -0.038673
     12 C6         -7.2010    1.1230    3.0110 c         1 MOL      0.621218
     13 O3         -7.6220    0.8650    4.1580 o         1 MOL     -0.676938
     14 O4         -8.0000    1.5490    2.1120 o         1 MOL     -0.676938
     15 H4         -5.8700   -0.5490    4.5360 hn        1 MOL      0.214894
     16 H5         -5.8130   -0.9420    1.7450 h1        1 MOL      0.022912
     17 H6         -5.5500    1.4700    1.6680 hc        1 MOL     -0.053498
     18 H7         -5.1430    1.4640    3.3680 hc        1 MOL     -0.053498
     19 N2         -2.8850   -1.0390    3.0140 n         1 MOL     -0.089853
     20 C7         -1.4050   -1.1040    2.9560 c3        1 MOL      0.104731
     21 C8         -0.8070   -2.3480    2.2410 c         1 MOL      0.367692
     22 O5         -1.2530   -3.4070    2.5300 o         1 MOL     -0.508251
     23 C9         -0.7780   -0.8300    4.3490 c3        1 MOL     -0.160087
     24 C10        -1.0820    0.6140    4.8390 c3        1 MOL      0.082808
     25 C11        -0.2500    1.1130    6.0230 c3        1 MOL     -0.233665
     26 C12         1.2240    1.3460    5.6770 c3        1 MOL      0.292594
     27 N3          2.0500    1.9950    6.7060 n4        1 MOL     -0.591668
     28 H8         -3.3320   -1.6150    3.7060 hn        1 MOL      0.136300
     29 H9         -1.1030   -0.3270    2.2590 h1        1 MOL      0.029373
     30 H10         0.3010   -0.9270    4.2770 hc        1 MOL      0.056379
     31 H11        -1.1190   -1.5330    5.1070 hc        1 MOL      0.056379
     32 H12        -2.1110    0.5760    5.1810 hc        1 MOL      0.020091
     33 H13        -0.9310    1.3800    4.0740 hc        1 MOL      0.020091
     34 H14        -0.4020    0.4040    6.8480 hc        1 MOL      0.068292
     35 H15        -0.6080    2.0950    6.3440 hc        1 MOL      0.068292
     36 H16         1.2000    2.1300    4.9210 hx        1 MOL      0.041966
     37 H17         1.6460    0.4610    5.2030 hx        1 MOL      0.041966
     38 H18         1.5840    2.6810    7.2890 hn        1 MOL      0.379876
     39 H19         2.5120    1.2240    7.1640 hn        1 MOL      0.379876
     40 H20         2.8120    2.5190    6.2850 hn        1 MOL      0.379876
     41 N4          0.1140   -2.3490    1.3130 n         1 MOL     -0.090913
     42 C13         0.9570   -1.2960    0.6200 c3        1 MOL     -0.106063
     43 C14         1.5120   -0.2320    1.6030 c         1 MOL      0.490331
     44 O6          0.8340    0.7210    1.9400 o         1 MOL     -0.535824
     45 C15         0.1880   -0.6110   -0.5560 c3        1 MOL     -0.684491
     46 C16         0.0690   -1.4260   -1.8670 c         1 MOL      0.748370
     47 O7          0.6840   -2.5030   -1.9920 o         1 MOL     -0.692837
     48 O8         -0.5290   -0.8310   -2.7970 o         1 MOL     -0.692837
     49 H21         0.1890   -3.3210    1.0660 hn        1 MOL      0.107113
     50 H22         1.8030   -1.8570    0.2150 h1        1 MOL      0.024464
     51 H23         0.7820    0.2500   -0.8650 hc        1 MOL      0.288116
     52 H24        -0.7490   -0.1540   -0.2510 hc        1 MOL      0.288116
     53 N5          2.7330   -0.3510    2.1410 n         1 MOL     -0.327754
     54 C17         3.6500   -1.4640    1.8940 c3        1 MOL      0.040608
     55 C18         4.8360   -1.5080    2.9130 c         1 MOL      0.516695
     56 O9          4.9260   -0.7440    3.8210 o         1 MOL     -0.549736
     57 H25         3.0070    0.4340    2.7250 hn        1 MOL      0.222283
     58 H26         4.0860   -1.6010    0.9110 h1        1 MOL      0.059136
     59 H27         3.0200   -2.3510    1.9790 h1        1 MOL      0.059136
     60 N6          5.8610   -2.2950    2.6690 n         1 MOL     -0.482595
     61 C19         5.9190   -3.2710    1.5840 c3        1 MOL      0.085293
     62 C20         6.6560   -2.5940    0.3980 c         1 MOL      0.374462
     63 O10         7.3740   -1.6400    0.5400 o         1 MOL     -0.394893
     64 C21         6.5300   -4.5440    2.0120 c3        1 MOL     -0.174114
     65 C22         7.9250   -4.4910    2.8170 c         1 MOL      0.718268
     66 O11         9.0120   -4.3390    2.1850 o         1 MOL     -0.640555
     67 O12         7.9690   -4.8120    4.0430 o         1 MOL     -0.640555
     68 H28         6.6500   -2.1500    3.2850 hn        1 MOL      0.334352
     69 H29         4.8950   -3.4110    1.2420 h1        1 MOL      0.007158
     70 H30         6.7440   -5.1540    1.1330 hc        1 MOL      0.014673
     71 H31         5.8160   -5.1540    2.5720 hc        1 MOL      0.014673
     72 N7          6.5140   -3.1770   -0.7760 n         1 MOL     -0.196194
     73 C23         7.2700   -2.7260   -1.9820 c3        1 MOL     -0.149476
     74 C24         6.7740   -1.3250   -2.3060 c         1 MOL      0.499335
     75 O13         7.6650   -0.4370   -2.4120 o         1 MOL     -0.494974
     76 H32         5.9060   -3.9760   -0.8950 hn        1 MOL      0.167609
     77 H33         6.9990   -3.3900   -2.8040 h1        1 MOL      0.103167
     78 H34         8.3440   -2.7180   -1.8150 h1        1 MOL      0.103167
     79 N8          5.4560   -1.0990   -2.4040 n         1 MOL     -0.428783
     80 C25         4.9220    0.2800   -2.4650 c3        1 MOL      0.031407
     81 C26         5.1010    1.1640   -1.1740 c         1 MOL      0.485424
     82 O14         5.0350    0.6250   -0.0960 o         1 MOL     -0.458401
     83 C27         3.4300    0.3250   -2.7980 c3        1 MOL      0.320617
     84 C28         3.1110    0.1010   -4.3140 c3        1 MOL     -0.173421
     85 O15         2.8450    1.5860   -2.6360 oh        1 MOL     -0.585313
     86 H35         4.7980   -1.8280   -2.2000 hn        1 MOL      0.219483
     87 H36         5.5160    0.8390   -3.1920 h1        1 MOL      0.044202
     88 H37         2.9200   -0.3250   -2.0990 h1        1 MOL      0.035984
     89 H38         1.9350    1.6090   -2.9280 ho        1 MOL      0.422648
     90 H39         3.2720    0.9610   -4.9640 hc        1 MOL      0.036074
     91 H40         3.6510   -0.7680   -4.6790 hc        1 MOL      0.036074
     92 H41         2.0670   -0.2290   -4.3910 hc        1 MOL      0.036074
     93 N9          5.3330    2.4600   -1.3550 n         1 MOL     -0.277626
     94 C29         5.5270    3.4890   -0.3180 c3        1 MOL     -0.030572
     95 C30         4.2290    4.3600    0.0530 c         1 MOL      0.378597
     96 O16         4.2170    5.2480    0.9540 o         1 MOL     -0.525241
     97 C31         6.7250    4.3920   -0.6410 c3        1 MOL      0.062009
     98 C32         6.3690    5.3650   -1.8400 c3        1 MOL      0.349500
     99 C33         8.0560    3.6510   -0.9830 c3        1 MOL     -0.222015
    100 C34         7.0340    6.7450   -1.7150 c3        1 MOL     -0.258051
    101 H42         5.3220    2.8250   -2.2950 hn        1 MOL      0.240198
    102 H43         5.7970    2.9380    0.5890 h1        1 MOL      0.091633
    103 H44         6.8130    5.0540    0.2190 hc        1 MOL      0.012120
    104 H45         5.2810    5.4480   -1.8210 hc        1 MOL     -0.099716
    105 H46         6.6570    4.9360   -2.8130 hc        1 MOL     -0.099716
    106 H47         8.9250    4.3150   -0.9180 hc        1 MOL      0.058208
    107 H48         8.1400    2.9180   -0.1840 hc        1 MOL      0.058208
    108 H49         8.0730    2.9640   -1.8390 hc        1 MOL      0.058208
    109 H50         6.7710    7.2910   -0.8050 hc        1 MOL      0.047327
    110 H51         8.1120    6.5960   -1.8550 hc        1 MOL      0.047327
    111 H52         6.8530    7.3960   -2.5730 hc        1 MOL      0.047327
    112 N10         3.1530    3.9970   -0.6000 n         1 MOL     -0.065934
    113 C35         1.8660    4.7300   -0.5290 c3        1 MOL     -0.224080
    114 C36         0.6930    3.8150   -0.3840 c         1 MOL      0.690669
    115 O17         0.6460    2.7180   -0.9780 o         1 MOL     -0.545283
    116 C37         1.7460    5.7760   -1.6820 c3        1 MOL      0.330263
    117 C38         1.7030    5.1900   -3.1590 c3        1 MOL     -0.356664
    118 O18         2.8870    6.6450   -1.6170 oh        1 MOL     -0.563935
    119 H53         3.2610    3.1810   -1.1880 hn        1 MOL      0.049811
    120 H54         1.8450    5.3550    0.3660 h1        1 MOL      0.104693
    121 H55         0.8700    6.4110   -1.5790 h1        1 MOL      0.015906
    122 H56         2.5970    7.4740   -2.0000 ho        1 MOL      0.377548
    123 H57         2.6270    4.6710   -3.4100 hc        1 MOL      0.098072
    124 H58         0.8930    4.4620   -3.1880 hc        1 MOL      0.098072
    125 H59         1.4250    5.9560   -3.8830 hc        1 MOL      0.098072
    126 N11        -0.4350    4.2490    0.2090 n         1 MOL     -0.624405
    127 C39        -1.6180    3.3340    0.4070 c3        1 MOL      0.180726
    128 C40        -2.5140    3.2580   -0.7550 c         1 MOL      0.538332
    129 O19        -2.5970    4.2620   -1.4900 o         1 MOL     -0.577917
    130 C41        -2.5850    3.8360    1.5330 c3        1 MOL      0.258018
    131 C42        -3.1580    5.2360    1.3770 c3        1 MOL     -0.329857
    132 O20        -1.8490    3.7960    2.7290 oh        1 MOL     -0.613434
    133 H60        -0.3600    5.0950    0.7510 hn        1 MOL      0.333734
    134 H61        -1.3210    2.3290    0.6930 h1        1 MOL      0.099722
    135 H62        -3.4130    3.1360    1.6400 h1        1 MOL      0.077519
    136 H63        -2.4090    3.8960    3.5050 ho        1 MOL      0.387180
    137 H64        -3.6960    5.4280    2.3120 hc        1 MOL      0.083018
    138 H65        -2.3850    5.9950    1.2430 hc        1 MOL      0.083018
    139 H66        -3.8740    5.2670    0.5650 hc        1 MOL      0.083018
    140 N12        -3.3020    2.1820   -0.8920 n         1 MOL     -0.289468
    141 C43        -4.3580    1.8890   -1.9580 c3        1 MOL     -0.001352
    142 C44        -4.5990    0.4770   -2.3150 c         1 MOL      0.369451
    143 O21        -5.0920    0.1500   -3.4360 o         1 MOL     -0.566926
    144 C45        -5.6350    2.4790   -1.3940 c3        1 MOL     -0.166284
    145 C46        -6.8380    2.4520   -2.4370 c3        1 MOL     -0.223500
    146 C47        -7.9370    3.4620   -2.0520 c3        1 MOL      0.235410
    147 C48        -9.0030    3.4340   -3.1030 c3        1 MOL      0.191953
    148 N13       -10.1920    4.1390   -2.5680 n4        1 MOL     -0.460926
    149 H67        -3.2940    1.5200   -0.1430 hn        1 MOL     -0.081361
    150 H68        -4.1100    2.4150   -2.8710 h1        1 MOL      0.117504
    151 H69        -5.4610    3.5050   -1.0690 hc        1 MOL      0.103287
    152 H70        -5.9140    1.9400   -0.4880 hc        1 MOL      0.103287
    153 H71        -7.2580    1.4470   -2.4240 hc        1 MOL      0.088355
    154 H72        -6.4110    2.7620   -3.4060 hc        1 MOL      0.088355
    155 H73        -7.6360    4.5040   -1.9820 hc        1 MOL     -0.038739
    156 H74        -8.2930    3.1400   -1.0700 hc        1 MOL     -0.038739
    157 H75        -9.3160    2.4270   -3.3580 hx        1 MOL      0.016795
    158 H76        -8.6300    3.8960   -4.0200 hx        1 MOL      0.016795
    159 H77       -10.6960    3.5030   -1.9620 hn        1 MOL      0.342672
    160 H78       -10.0260    5.0620   -2.1780 hn        1 MOL      0.342672
    161 H79       -10.8120    4.1920   -3.3570 hn        1 MOL      0.342672
    162 N14        -4.2250   -0.5220   -1.4750 n         1 MOL      0.363753
    163 C49        -4.4160   -2.0060   -1.6220 c3        1 MOL     -0.789136
    164 C50        -5.9360   -2.3210   -1.6160 c         1 MOL      0.702953
    165 O22        -6.6780   -1.7430   -0.7980 o         1 MOL     -0.552226
    166 C51        -3.7220   -2.7530   -0.4770 c3        1 MOL      0.463327
    167 C52        -3.8750   -4.2840   -0.4340 c3        1 MOL     -1.013737
    168 C53        -3.5200   -4.9700   -1.7520 c         1 MOL      1.118294
    169 O23        -4.4220   -5.1580   -2.5820 o         1 MOL     -0.836155
    170 O24        -2.3280   -5.3720   -1.9070 o         1 MOL     -0.836155
    171 H80        -3.8920   -0.2810   -0.5490 hn        1 MOL     -0.060598
    172 H81        -3.8770   -2.3100   -2.5130 h1        1 MOL      0.181377
    173 H82        -3.9570   -2.3410    0.5140 hc        1 MOL     -0.019491
    174 H83        -2.6440   -2.6110   -0.4910 hc        1 MOL     -0.019491
    175 H84        -4.9090   -4.4440   -0.1270 hc        1 MOL      0.267830
    176 H85        -3.2230   -4.6600    0.3580 hc        1 MOL      0.267830
    177 N15        -6.3760   -3.2010   -2.4730 n         1 MOL     -0.439586
    178 C54        -7.8090   -3.4950   -2.7020 c3        1 MOL     -0.141340
    179 H86        -7.9110   -4.4930   -3.1250 h1        1 MOL      0.083291
    180 H87        -8.3460   -3.4460   -1.7540 h1        1 MOL      0.083291
    181 H88        -8.2250   -2.7620   -3.3930 h1        1 MOL      0.083291
    182 H89        -5.6660   -3.8150   -2.8420 hn        1 MOL      0.469233
    183 Ca1         0.2380   -5.0950   -2.5930 Ca        1 MOL      1.625833
    184 O25        -0.3430   -3.2930   -4.4370 oh        1 MOL     -0.906242
    185 H90        -0.8280   -3.1780   -5.2570 ho        1 MOL      0.445112
    186 H91        -0.4220   -2.4450   -4.0030 ho        1 MOL      0.445112
    187 O26         2.2400   -5.0090   -4.4370 oh        1 MOL     -0.906242
    188 H92         2.4040   -4.6110   -5.2810 ho        1 MOL      0.445112
    189 H93         3.0300   -5.5100   -4.2490 ho        1 MOL      0.445112
    190 O27        -0.7640   -6.2160   -4.7510 oh        1 MOL     -0.906242
    191 H94        -0.2380   -6.3520   -5.5350 ho        1 MOL      0.445112
    192 H95        -1.4770   -6.8460   -4.8360 ho        1 MOL      0.445112
@<TRIPOS>BOND
     1    1    2 1   
     2    1    4 1   
     3    1    5 1   
     4    1    6 1   
     5    2    3 2   
     6    2    7 1   
     7    7    8 1   
     8    7   15 1   
     9    8    9 1   
    10    8   11 1   
    11    8   16 1   
    12    9   10 2   
    13    9   19 1   
    14   11   12 1   
    15   11   17 1   
    16   11   18 1   
    17   12   13 1   
    18   12   14 1   
    19   19   20 1   
    20   19   28 1   
    21   20   21 1   
    22   20   23 1   
    23   20   29 1   
    24   21   22 2   
    25   21   41 1   
    26   23   24 1   
    27   23   30 1   
    28   23   31 1   
    29   24   25 1   
    30   24   32 1   
    31   24   33 1   
    32   25   26 1   
    33   25   34 1   
    34   25   35 1   
    35   26   27 1   
    36   26   36 1   
    37   26   37 1   
    38   27   38 1   
    39   27   39 1   
    40   27   40 1   
    41   41   42 1   
    42   41   49 1   
    43   42   43 1   
    44   42   45 1   
    45   42   50 1   
    46   43   44 2   
    47   43   53 1   
    48   45   46 1   
    49   45   51 1   
    50   45   52 1   
    51   46   47 1   
    52   46   48 1   
    53   53   54 1   
    54   53   57 1   
    55   54   55 1   
    56   54   58 1   
    57   54   59 1   
    58   55   56 2   
    59   55   60 1   
    60   60   61 1   
    61   60   68 1   
    62   61   62 1   
    63   61   64 1   
    64   61   69 1   
    65   62   63 2   
    66   62   72 1   
    67   64   65 1   
    68   64   70 1   
    69   64   71 1   
    70   65   66 1   
    71   65   67 1   
    72   72   73 1   
    73   72   76 1   
    74   73   74 1   
    75   73   77 1   
    76   73   78 1   
    77   74   75 2   
    78   74   79 1   
    79   79   80 1   
    80   79   86 1   
    81   80   81 1   
    82   80   83 1   
    83   80   87 1   
    84   81   82 2   
    85   81   93 1   
    86   83   84 1   
    87   83   85 1   
    88   83   88 1   
    89   84   90 1   
    90   84   91 1   
    91   84   92 1   
    92   85   89 1   
    93   93   94 1   
    94   93  101 1   
    95   94   95 1   
    96   94   97 1   
    97   94  102 1   
    98   95   96 2   
    99   95  112 1   
   100   97   98 1   
   101   97   99 1   
   102   97  103 1   
   103   98  100 1   
   104   98  104 1   
   105   98  105 1   
   106   99  106 1   
   107   99  107 1   
   108   99  108 1   
   109  100  109 1   
   110  100  110 1   
   111  100  111 1   
   112  112  113 1   
   113  112  119 1   
   114  113  114 1   
   115  113  116 1   
   116  113  120 1   
   117  114  115 2   
   118  114  126 1   
   119  116  117 1   
   120  116  118 1   
   121  116  121 1   
   122  117  123 1   
   123  117  124 1   
   124  117  125 1   
   125  118  122 1   
   126  126  127 1   
   127  126  133 1   
   128  127  128 1   
   129  127  130 1   
   130  127  134 1   
   131  128  129 2   
   132  128  140 1   
   133  130  131 1   
   134  130  132 1   
   135  130  135 1   
   136  131  137 1   
   137  131  138 1   
   138  131  139 1   
   139  132  136 1   
   140  140  141 1   
   141  140  149 1   
   142  141  142 1   
   143  141  144 1   
   144  141  150 1   
   145  142  143 2   
   146  142  162 1   
   147  144  145 1   
   148  144  151 1   
   149  144  152 1   
   150  145  146 1   
   151  145  153 1   
   152  145  154 1   
   153  146  147 1   
   154  146  155 1   
   155  146  156 1   
   156  147  148 1   
   157  147  157 1   
   158  147  158 1   
   159  148  159 1   
   160  148  160 1   
   161  148  161 1   
   162  162  163 1   
   163  162  171 1   
   164  163  164 1   
   165  163  166 1   
   166  163  172 1   
   167  164  165 2   
   168  164  177 1   
   169  166  167 1   
   170  166  173 1   
   171  166  174 1   
   172  167  168 1   
   173  167  175 1   
   174  167  176 1   
   175  168  169 1   
   176  168  170 1   
   177  177  178 1   
   178  177  182 1   
   179  178  179 1   
   180  178  180 1   
   181  178  181 1   
   182  184  185 1   
   183  184  186 1   
   184  187  188 1   
   185  187  189 1   
   186  190  191 1   
   187  190  192 1   
@<TRIPOS>SUBSTRUCTURE
     1 MOL         1 TEMP              0 ****  ****    0 ROOT
