@<TRIPOS>MOLECULE
MOL
  182   178     1     0     0
SMALL
resp


@<TRIPOS>ATOM
      1 C1          1.5770   -3.6640    6.6210 c3        1 MOL     -0.429808
      2 C2          1.4780   -3.5210    5.0940 c         1 MOL      0.764415
      3 O1          0.4430   -3.8670    4.4660 o         1 MOL     -0.608685
      4 H1          1.0050   -4.5340    6.9410 hc        1 MOL      0.124282
      5 H2          2.6210   -3.7900    6.9070 hc        1 MOL      0.124282
      6 H3          1.1750   -2.7700    7.0970 hc        1 MOL      0.124282
      7 N1          2.5040   -2.9120    4.4110 n         1 MOL     -0.658926
      8 C3          2.6310   -2.7510    2.9420 c3        1 MOL      0.003317
      9 C4          2.8050   -4.0230    2.1230 c         1 MOL      0.669612
     10 O2          3.3030   -5.0230    2.5750 o         1 MOL     -0.534662
     11 C5          3.8000   -1.7980    2.8190 c3        1 MOL     -0.009467
     12 C6          3.6590   -1.0390    1.4960 c         1 MOL      0.544945
     13 O3          4.0320    0.1650    1.4160 o         1 MOL     -0.636362
     14 O4          3.4030   -1.6200    0.4340 o         1 MOL     -0.636362
     15 H4          3.2230   -2.5980    5.0380 hn        1 MOL      0.335075
     16 H5          1.7130   -2.2110    2.7060 h1        1 MOL      0.042237
     17 H6          4.6800   -2.4340    2.7480 hc        1 MOL      0.045268
     18 H7          3.8650   -1.0760    3.6330 hc        1 MOL      0.045268
     19 N2          2.2720   -4.1120    0.8700 n         1 MOL     -0.268723
     20 C7          2.3160   -5.2260   -0.1210 c3        1 MOL     -0.121987
     21 C8          3.4700   -5.1150   -1.1340 c         1 MOL      0.565279
     22 O5          3.9640   -6.0570   -1.7460 o         1 MOL     -0.559144
     23 C9          0.9280   -5.5210   -0.7810 c3        1 MOL      0.182356
     24 C10         0.7270   -6.9440   -1.2920 c3        1 MOL     -0.118989
     25 C11        -0.6490   -7.1400   -1.9110 c3        1 MOL     -0.008553
     26 C12        -0.7580   -8.5310   -2.5030 c3        1 MOL      0.221679
     27 N3         -2.1580   -8.7720   -2.9670 n4        1 MOL     -0.354366
     28 H8          1.7210   -3.3140    0.5930 hn        1 MOL     -0.004998
     29 H9          2.6050   -6.0820    0.4850 h1        1 MOL      0.089346
     30 H10         0.7600   -4.7980   -1.5840 hc        1 MOL     -0.006726
     31 H11         0.0720   -5.3690   -0.1180 hc        1 MOL     -0.006726
     32 H12         0.6860   -7.6440   -0.4510 hc        1 MOL      0.042487
     33 H13         1.5260   -7.1860   -1.9950 hc        1 MOL      0.042487
     34 H14        -0.7850   -6.4630   -2.7590 hc        1 MOL      0.014571
     35 H15        -1.4290   -7.0200   -1.1610 hc        1 MOL      0.014571
     36 H16        -0.4420   -9.3250   -1.8280 hx        1 MOL      0.032941
     37 H17        -0.1250   -8.6100   -3.3850 hx        1 MOL      0.032941
     38 H18        -2.7530   -8.8860   -2.1500 hn        1 MOL      0.298353
     39 H19        -2.4980   -7.9710   -3.4940 hn        1 MOL      0.298353
     40 H20        -2.3360   -9.6210   -3.4830 hn        1 MOL      0.298353
     41 N4          4.0090   -3.8660   -1.2450 n         1 MOL     -0.148531
     42 C13         5.1660   -3.5810   -2.1250 c3        1 MOL     -0.060143
     43 C14         6.3740   -3.0920   -1.3170 c         1 MOL      0.445766
     44 O6          7.5090   -3.4050   -1.6770 o         1 MOL     -0.537309
     45 C15         4.6530   -2.6370   -3.3160 c3        1 MOL     -0.250997
     46 C16         3.8450   -1.4720   -2.8150 c         1 MOL      0.727146
     47 O7          2.5970   -1.5470   -2.8370 o         1 MOL     -0.699683
     48 O8          4.5100   -0.5350   -2.2880 o         1 MOL     -0.699683
     49 H21         3.4570   -3.1240   -0.8250 hn        1 MOL      0.036427
     50 H22         5.5620   -4.4820   -2.5810 h1        1 MOL      0.141496
     51 H23         4.1100   -3.2780   -4.0010 hc        1 MOL      0.083805
     52 H24         5.4950   -2.3480   -3.9490 hc        1 MOL      0.083805
     53 N5          6.1250   -2.4070   -0.1900 n         1 MOL     -0.182791
     54 C17         6.9920   -1.6630    0.6540 c3        1 MOL     -0.061646
     55 C18         7.0520   -0.1430    0.4150 c         1 MOL      0.464821
     56 O9          7.5930    0.5790    1.2570 o         1 MOL     -0.584100
     57 H25         5.1370   -2.2640   -0.0500 hn        1 MOL      0.079560
     58 H26         8.0160   -2.0520    0.6090 h1        1 MOL      0.079207
     59 H27         6.6950   -1.7880    1.7040 h1        1 MOL      0.079207
     60 N6          6.5380    0.3340   -0.6790 n         1 MOL     -0.107285
     61 C19         6.8120    1.6860   -1.1130 c3        1 MOL      0.201489
     62 C20         5.5780    2.6550   -0.9800 c         1 MOL      0.316031
     63 O10         4.4450    2.1730   -0.9830 o         1 MOL     -0.417138
     64 C21         7.2770    1.4220   -2.5280 c3        1 MOL     -0.203333
     65 C22         8.6400    0.6930   -2.6680 c         1 MOL      0.648161
     66 N7          8.7160   -0.5930   -2.3870 n         1 MOL     -0.808924
     67 O11         9.6230    1.2940   -2.9580 o         1 MOL     -0.540602
     68 H28         5.8550   -0.1720   -1.2190 hn        1 MOL      0.135940
     69 H29         7.6740    2.0640   -0.5580 h1        1 MOL      0.035216
     70 H30         7.5050    2.4380   -2.8590 hc        1 MOL      0.020020
     71 H31         6.4750    0.9390   -3.0800 hc        1 MOL      0.020020
     72 H32         7.8970   -1.1840   -2.3040 hn        1 MOL      0.369385
     73 H33         9.6020   -1.0710   -2.4710 hn        1 MOL      0.369385
     74 N8          5.8410    3.9830   -1.0560 n         1 MOL     -0.261836
     75 C23         4.7780    4.9930   -1.2890 c3        1 MOL     -0.194945
     76 C24         3.7620    5.1720   -0.1880 c         1 MOL      0.554108
     77 O12         4.0410    5.2900    1.0350 o         1 MOL     -0.508275
     78 H34         6.8040    4.2400   -0.8960 hn        1 MOL      0.286352
     79 H35         4.2440    4.7100   -2.2030 h1        1 MOL      0.113904
     80 H36         5.3420    5.9140   -1.5080 h1        1 MOL      0.113904
     81 N9          2.4440    5.1010   -0.4780 n         1 MOL     -0.471789
     82 C25         1.3820    5.0240    0.5230 c3        1 MOL      0.246474
     83 C26         1.0210    3.5520    0.8350 c         1 MOL      0.829605
     84 O13         1.5120    2.7090    0.0860 o         1 MOL     -0.757750
     85 C27         0.1550    5.8160    0.0180 c3        1 MOL     -0.311614
     86 C28         0.3540    7.2880   -0.2920 ca        1 MOL      0.132883
     87 C29         0.3440    8.2680    0.7140 ca        1 MOL     -0.148568
     88 C30         0.7350    7.6100   -1.6280 ca        1 MOL     -0.148568
     89 C31         0.3730    9.6380    0.3890 ca        1 MOL     -0.321397
     90 C32         0.8920    9.0190   -1.8980 ca        1 MOL     -0.321397
     91 C33         0.7420   10.0010   -0.9210 ca        1 MOL      0.417733
     92 O14         0.9110   11.3100   -1.2400 oh        1 MOL     -0.513247
     93 H37         2.0490    4.8860   -1.3760 hn        1 MOL      0.269242
     94 H38         1.7570    5.4400    1.4610 h1        1 MOL      0.011728
     95 H39        -0.5640    5.7040    0.8320 hc        1 MOL      0.070831
     96 H40        -0.2860    5.3920   -0.8790 hc        1 MOL      0.070831
     97 H41         0.2050    7.9120    1.7180 ha        1 MOL      0.140217
     98 H42         0.9330    6.9020   -2.4170 ha        1 MOL      0.140217
     99 H43         0.2300   10.3870    1.1590 ha        1 MOL      0.166555
    100 H44         1.2330    9.3210   -2.8770 ha        1 MOL      0.166555
    101 H45         0.5920   11.8720   -0.5270 ho        1 MOL      0.382170
    102 N10         0.2240    3.2760    1.8480 n         1 MOL     -0.729045
    103 C34        -0.0030    1.9970    2.5320 c3        1 MOL      0.128793
    104 C35        -0.2050    0.7550    1.6640 c         1 MOL      0.453886
    105 O15         0.6570    0.2620    0.9610 o         1 MOL     -0.303037
    106 C36         1.0840    1.6780    3.5890 c3        1 MOL      0.347660
    107 C37         0.7240    0.7080    4.7420 c3        1 MOL     -0.000045
    108 C38         1.6950    3.0020    4.1760 c3        1 MOL     -0.200284
    109 C39        -0.2940    1.2480    5.7770 c3        1 MOL     -0.424625
    110 H46        -0.0510    4.0300    2.4730 hn        1 MOL      0.346718
    111 H47        -0.8780    2.2060    3.1370 h1        1 MOL      0.026839
    112 H48         1.8810    1.2180    2.9970 hc        1 MOL     -0.135268
    113 H49         1.6400    0.3660    5.2210 hc        1 MOL      0.048846
    114 H50         0.2950   -0.2110    4.3330 hc        1 MOL      0.048846
    115 H51         2.3720    3.5720    3.5450 hc        1 MOL      0.044254
    116 H52         0.8850    3.6220    4.5920 hc        1 MOL      0.044254
    117 H53         2.3100    2.7360    5.0280 hc        1 MOL      0.044254
    118 H54        -0.2490    2.3350    5.7840 hc        1 MOL      0.103051
    119 H55        -1.2720    0.8270    5.5400 hc        1 MOL      0.103051
    120 H56         0.0370    0.8250    6.7200 hc        1 MOL      0.103051
    121 N11        -1.3670    0.1250    1.7820 n         1 MOL     -0.457294
    122 C40        -1.7560   -1.0750    1.0100 c3        1 MOL     -0.070642
    123 C41        -3.2400   -1.2690    0.6640 c         1 MOL      0.653147
    124 O16        -3.6430   -2.1220   -0.1410 o         1 MOL     -0.538705
    125 C42        -1.2300   -2.3810    1.6090 c3        1 MOL      0.367609
    126 O17        -1.7320   -2.6020    2.8830 oh        1 MOL     -0.648090
    127 H57        -2.0420    0.4200    2.4800 hn        1 MOL      0.264180
    128 H58        -1.1850   -0.9160    0.0930 h1        1 MOL      0.027504
    129 H59        -0.1730   -2.1610    1.6590 h1        1 MOL     -0.009010
    130 H60        -1.4360   -3.2010    0.9210 h1        1 MOL     -0.009010
    131 H61        -1.1200   -3.1210    3.4210 ho        1 MOL      0.415501
    132 N12        -4.1150   -0.3710    1.2450 n         1 MOL     -0.571487
    133 C43        -5.5050   -0.3410    0.7250 c3        1 MOL      0.067837
    134 C44        -5.6450    0.0500   -0.7670 c         1 MOL      0.639325
    135 O18        -4.7760    0.5990   -1.3520 o         1 MOL     -0.560441
    136 C45        -6.2760    0.5700    1.7170 c3        1 MOL     -0.269419
    137 H62        -3.8250    0.3360    1.8990 hn        1 MOL      0.320013
    138 H63        -5.8330   -1.3570    0.9360 h1        1 MOL      0.138146
    139 H64        -7.3400    0.3640    1.5820 hc        1 MOL      0.082163
    140 H65        -5.9970    0.3140    2.7400 hc        1 MOL      0.082163
    141 H66        -6.0000    1.6050    1.5310 hc        1 MOL      0.082163
    142 N13        -6.7150   -0.4210   -1.4820 n         1 MOL     -0.587376
    143 C46        -7.8850   -1.2210   -1.0090 c3        1 MOL      0.165359
    144 C47        -9.1110   -0.9530   -1.9930 c         1 MOL      0.450104
    145 O19        -8.8570   -0.8330   -3.1870 o         1 MOL     -0.511222
    146 C48        -7.4180   -2.6600   -1.1270 c3        1 MOL     -0.205267
    147 H67        -6.7140   -0.1220   -2.4430 hn        1 MOL      0.334870
    148 H68        -8.1570   -1.1440    0.0420 h1        1 MOL      0.022195
    149 H69        -6.4380   -2.7660   -0.6800 hc        1 MOL      0.050950
    150 H70        -8.2180   -3.2960   -0.7740 hc        1 MOL      0.050950
    151 H71        -7.4470   -2.8720   -2.2030 hc        1 MOL      0.050950
    152 N14       -10.3840   -0.8050   -1.5350 n         1 MOL     -0.394371
    153 C49       -10.9180   -0.9190   -0.1930 c3        1 MOL      0.011177
    154 C50       -10.3140    0.1550    0.7030 c         1 MOL      0.549916
    155 O20        -9.9220   -0.2700    1.8130 o         1 MOL     -0.617993
    156 C51       -12.4360   -0.7590   -0.1920 c3        1 MOL     -0.045627
    157 C52       -13.1280    0.5620   -0.4900 c3        1 MOL     -0.091640
    158 C53       -12.7440    1.0770   -1.8940 c         1 MOL      0.674050
    159 O21       -11.8370    1.9330   -1.9100 o         1 MOL     -0.664934
    160 O22       -13.2940    0.6250   -2.9140 o         1 MOL     -0.664934
    161 H72       -11.0560   -0.6530   -2.2730 hn        1 MOL      0.300353
    162 H73       -10.6610   -1.8550    0.3140 h1        1 MOL      0.059256
    163 H74       -12.7300   -1.0640    0.8140 hc        1 MOL      0.020111
    164 H75       -12.8930   -1.5350   -0.7980 hc        1 MOL      0.020111
    165 H76       -12.8660    1.3040    0.2700 hc        1 MOL      0.007369
    166 H77       -14.2180    0.5170   -0.4850 hc        1 MOL      0.007369
    167 N15       -10.1430    1.3830    0.3390 n         1 MOL     -0.231618
    168 C54        -9.5030    2.4680    1.0830 c3        1 MOL     -0.150269
    169 H78        -9.2070    3.2560    0.3910 h1        1 MOL      0.077405
    170 H79       -10.2040    2.8720    1.8140 h1        1 MOL      0.077405
    171 H80        -8.6220    2.0860    1.5970 h1        1 MOL      0.077405
    172 H81       -10.6520    1.7060   -0.4750 hn        1 MOL      0.205056
    173 Ca1         2.5640    0.3420   -0.9040 Ca        1 MOL      1.708599
    174 O23         2.6720    1.2140   -3.3920 oh        1 MOL     -0.824941
    175 H82         3.4740    1.1550   -3.9030 ho        1 MOL      0.413566
    176 H83         1.9700    1.2820   -4.0520 ho        1 MOL      0.413566
    177 O24         0.8110   -2.0680   -0.9590 oh        1 MOL     -0.824941
    178 H84         1.3570   -2.0970   -1.7470 ho        1 MOL      0.413566
    179 H85        -0.0710   -2.2790   -1.2670 ho        1 MOL      0.413566
    180 O25         0.0630    0.8480   -1.7800 oh        1 MOL     -0.824941
    181 H86        -0.6920    1.2010   -1.3070 ho        1 MOL      0.413566
    182 H87        -0.1540    0.9620   -2.7060 ho        1 MOL      0.413566
@<TRIPOS>BOND
     1    1    2 1   
     2    1    4 1   
     3    1    5 1   
     4    1    6 1   
     5    2    3 2   
     6    2    7 1   
     7    7    8 1   
     8    7   15 1   
     9    8    9 1   
    10    8   11 1   
    11    8   16 1   
    12    9   10 2   
    13    9   19 1   
    14   11   12 1   
    15   11   17 1   
    16   11   18 1   
    17   12   13 1   
    18   12   14 1   
    19   19   20 1   
    20   19   28 1   
    21   20   21 1   
    22   20   23 1   
    23   20   29 1   
    24   21   22 2   
    25   21   41 1   
    26   23   24 1   
    27   23   30 1   
    28   23   31 1   
    29   24   25 1   
    30   24   32 1   
    31   24   33 1   
    32   25   26 1   
    33   25   34 1   
    34   25   35 1   
    35   26   27 1   
    36   26   36 1   
    37   26   37 1   
    38   27   38 1   
    39   27   39 1   
    40   27   40 1   
    41   41   42 1   
    42   41   49 1   
    43   42   43 1   
    44   42   45 1   
    45   42   50 1   
    46   43   44 2   
    47   43   53 1   
    48   45   46 1   
    49   45   51 1   
    50   45   52 1   
    51   46   47 1   
    52   46   48 1   
    53   53   54 1   
    54   53   57 1   
    55   54   55 1   
    56   54   58 1   
    57   54   59 1   
    58   55   56 2   
    59   55   60 1   
    60   60   61 1   
    61   60   68 1   
    62   61   62 1   
    63   61   64 1   
    64   61   69 1   
    65   62   63 2   
    66   62   74 1   
    67   64   65 1   
    68   64   70 1   
    69   64   71 1   
    70   65   66 1   
    71   65   67 2   
    72   66   72 1   
    73   66   73 1   
    74   74   75 1   
    75   74   78 1   
    76   75   76 1   
    77   75   79 1   
    78   75   80 1   
    79   76   77 2   
    80   76   81 1   
    81   81   82 1   
    82   81   93 1   
    83   82   83 1   
    84   82   85 1   
    85   82   94 1   
    86   83   84 2   
    87   83  102 1   
    88   85   86 1   
    89   85   95 1   
    90   85   96 1   
    91   86   87 ar  
    92   86   88 ar  
    93   87   89 ar  
    94   87   97 1   
    95   88   90 ar  
    96   88   98 1   
    97   89   91 ar  
    98   89   99 1   
    99   90   91 ar  
   100   90  100 1   
   101   91   92 1   
   102   92  101 1   
   103  102  103 1   
   104  102  110 1   
   105  103  104 1   
   106  103  106 1   
   107  103  111 1   
   108  104  105 2   
   109  104  121 1   
   110  106  107 1   
   111  106  108 1   
   112  106  112 1   
   113  107  109 1   
   114  107  113 1   
   115  107  114 1   
   116  108  115 1   
   117  108  116 1   
   118  108  117 1   
   119  109  118 1   
   120  109  119 1   
   121  109  120 1   
   122  121  122 1   
   123  121  127 1   
   124  122  123 1   
   125  122  125 1   
   126  122  128 1   
   127  123  124 2   
   128  123  132 1   
   129  125  126 1   
   130  125  129 1   
   131  125  130 1   
   132  126  131 1   
   133  132  133 1   
   134  132  137 1   
   135  133  134 1   
   136  133  136 1   
   137  133  138 1   
   138  134  135 2   
   139  134  142 1   
   140  136  139 1   
   141  136  140 1   
   142  136  141 1   
   143  142  143 1   
   144  142  147 1   
   145  143  144 1   
   146  143  146 1   
   147  143  148 1   
   148  144  145 2   
   149  144  152 1   
   150  146  149 1   
   151  146  150 1   
   152  146  151 1   
   153  152  153 1   
   154  152  161 1   
   155  153  154 1   
   156  153  156 1   
   157  153  162 1   
   158  154  155 2   
   159  154  167 1   
   160  156  157 1   
   161  156  163 1   
   162  156  164 1   
   163  157  158 1   
   164  157  165 1   
   165  157  166 1   
   166  158  159 1   
   167  158  160 1   
   168  167  168 1   
   169  167  172 1   
   170  168  169 1   
   171  168  170 1   
   172  168  171 1   
   173  174  175 1   
   174  174  176 1   
   175  177  178 1   
   176  177  179 1   
   177  180  181 1   
   178  180  182 1   
@<TRIPOS>SUBSTRUCTURE
     1 MOL         1 TEMP              0 ****  ****    0 ROOT
