@<TRIPOS>MOLECULE
MOL
  195   189     1     0     0
SMALL
resp


@<TRIPOS>ATOM
      1 C1         -4.3990   -0.9970    2.9580 c3        1 MOL     -0.286811
      2 C2         -3.5010   -1.7650    1.9870 c         1 MOL      0.621888
      3 O1         -2.3680   -1.3280    1.7940 o         1 MOL     -0.588807
      4 H1         -5.4250   -1.0100    2.5920 hc        1 MOL      0.076054
      5 H2         -4.3580   -1.4670    3.9400 hc        1 MOL      0.076054
      6 H3         -4.0540    0.0340    3.0340 hc        1 MOL      0.076054
      7 N1         -3.9880   -2.8410    1.3830 n         1 MOL     -0.329611
      8 C3         -3.2440   -3.6120    0.3450 c3        1 MOL     -0.017434
      9 C4         -1.6770   -3.7900    0.6130 c         1 MOL      0.716938
     10 O2         -0.8380   -3.8300   -0.3040 o         1 MOL     -0.557688
     11 C5         -3.6200   -3.2450   -1.0650 c3        1 MOL     -0.519197
     12 C6         -5.1130   -3.2410   -1.3260 c         1 MOL      0.970392
     13 O3         -5.8800   -3.8400   -0.5280 o         1 MOL     -0.785449
     14 O4         -5.6070   -2.6780   -2.2900 o         1 MOL     -0.785449
     15 H4         -4.9730   -2.9990    1.5030 hn        1 MOL      0.169790
     16 H5         -3.5380   -4.6490    0.5080 h1        1 MOL      0.082787
     17 H6         -3.2600   -3.9970   -1.7690 hc        1 MOL      0.148587
     18 H7         -3.1490   -2.3030   -1.3530 hc        1 MOL      0.148587
     19 N2         -1.3130   -4.2050    1.8050 n         1 MOL     -0.575481
     20 C7          0.0590   -4.2860    2.2600 c3        1 MOL      0.034257
     21 C8          0.6950   -5.6220    1.8480 c         1 MOL      0.664081
     22 O5         -0.0340   -6.6380    1.7740 o         1 MOL     -0.616639
     23 C9          0.1980   -4.1630    3.8150 c3        1 MOL      0.088335
     24 C10        -0.2790   -5.3580    4.6270 c3        1 MOL      0.234859
     25 C11        -0.4580   -2.8520    4.4040 c3        1 MOL     -0.278573
     26 C12         0.2030   -5.4270    6.1220 c3        1 MOL     -0.373162
     27 H8         -2.0640   -4.4320    2.4520 hn        1 MOL      0.263456
     28 H9          0.6010   -3.4770    1.7760 h1        1 MOL      0.134246
     29 H10         1.2770   -4.1030    3.9660 hc        1 MOL      0.028194
     30 H11        -0.0880   -6.3220    4.1480 hc        1 MOL     -0.055395
     31 H12        -1.3630   -5.2810    4.5780 hc        1 MOL     -0.055395
     32 H13        -0.1500   -2.0880    3.6960 hc        1 MOL      0.072872
     33 H14        -1.5360   -2.9510    4.3130 hc        1 MOL      0.072872
     34 H15        -0.1650   -2.6880    5.4380 hc        1 MOL      0.072872
     35 H16        -0.3900   -6.1350    6.7000 hc        1 MOL      0.081293
     36 H17         1.2400   -5.7480    6.0980 hc        1 MOL      0.081293
     37 H18         0.1210   -4.4080    6.5150 hc        1 MOL      0.081293
     38 N3          2.0020   -5.7230    1.6540 n         1 MOL     -0.541651
     39 C13         2.8850   -4.7110    1.1050 c3        1 MOL     -0.161974
     40 C14         3.9630   -5.3390    0.2340 c         1 MOL      0.624169
     41 O6          4.9180   -5.8640    0.7900 o         1 MOL     -0.461353
     42 C15         3.5730   -3.9480    2.2980 c3        1 MOL     -0.219686
     43 C16         4.7580   -3.0580    1.9040 c         1 MOL      0.687910
     44 O7          5.7980   -3.1800    2.6360 o         1 MOL     -0.677335
     45 O8          4.6280   -2.2260    0.9100 o         1 MOL     -0.677335
     46 H19         2.4060   -6.6420    1.8120 hn        1 MOL      0.312755
     47 H20         2.2620   -4.0470    0.4970 h1        1 MOL      0.106268
     48 H21         3.7980   -4.6420    3.1100 hc        1 MOL      0.062866
     49 H22         2.7770   -3.2900    2.6730 hc        1 MOL      0.062866
     50 N4          3.8910   -5.3050   -1.1210 n         1 MOL     -0.504161
     51 C17         4.9660   -5.6150   -2.0620 c3        1 MOL     -0.032476
     52 C18         6.0840   -4.4810   -2.2360 c         1 MOL      0.489426
     53 O9          7.2770   -4.6510   -1.9660 o         1 MOL     -0.531742
     54 H23         3.0250   -4.9590   -1.5120 hn        1 MOL      0.327584
     55 H24         4.5960   -5.9670   -3.0250 h1        1 MOL      0.053849
     56 H25         5.4910   -6.3950   -1.5160 h1        1 MOL      0.053849
     57 N5          5.6570   -3.2790   -2.6580 n         1 MOL     -0.368382
     58 C19         6.5520   -2.2000   -3.0360 c3        1 MOL     -0.003498
     59 C20         7.5260   -1.7250   -1.9190 c         1 MOL      0.472127
     60 O10         8.6620   -1.3760   -2.1320 o         1 MOL     -0.551938
     61 C21         5.8110   -1.0420   -3.6920 c3        1 MOL     -0.213089
     62 C22         4.7320   -0.4220   -2.8410 c         1 MOL      0.769360
     63 O11         3.6270   -0.9320   -2.8020 o         1 MOL     -0.695356
     64 O12         5.0860    0.5100   -2.1250 o         1 MOL     -0.695356
     65 H26         4.6530   -3.2320   -2.7140 hn        1 MOL      0.243374
     66 H27         7.2810   -2.6220   -3.7370 h1        1 MOL      0.058098
     67 H28         5.2730   -1.2950   -4.5990 hc        1 MOL      0.026045
     68 H29         6.5010   -0.2470   -3.9510 hc        1 MOL      0.026045
     69 N6          7.0700   -1.6960   -0.6140 n         1 MOL     -0.082274
     70 C23         7.7300   -1.1150    0.5310 c3        1 MOL     -0.301042
     71 C24         8.1890    0.3780    0.3160 c         1 MOL      0.473964
     72 O13         9.1290    0.8960    0.9810 o         1 MOL     -0.600745
     73 H30         6.1270   -1.9750   -0.3830 hn        1 MOL      0.254732
     74 H31         8.6490   -1.6680    0.7340 h1        1 MOL      0.126453
     75 H32         7.0480   -1.2630    1.3770 h1        1 MOL      0.126453
     76 N7          7.5890    1.0820   -0.6360 n         1 MOL      0.091277
     77 C25         7.6730    2.4420   -1.0010 c3        1 MOL      0.069894
     78 C26         7.4660    3.3970    0.1990 c         1 MOL      0.447603
     79 O14         8.1060    4.4720    0.2130 o         1 MOL     -0.530739
     80 C27         8.7920    2.6900   -1.9700 c3        1 MOL      0.075375
     81 C28         8.7600    2.0340   -3.4110 c3        1 MOL     -0.088550
     82 C29        10.0270    2.0500   -4.1870 c         1 MOL      0.589206
     83 N8         10.9690    1.1210   -3.9580 n         1 MOL     -0.714772
     84 O15        10.2280    2.7840   -5.1300 o         1 MOL     -0.596835
     85 H33         6.9420    0.5450   -1.1900 hn        1 MOL     -0.064328
     86 H34         6.7840    2.6420   -1.6120 h1        1 MOL      0.066181
     87 H35         9.6960    2.2140   -1.5860 hc        1 MOL     -0.031292
     88 H36         8.8700    3.7780   -2.0280 hc        1 MOL     -0.031292
     89 H37         8.0120    2.6020   -3.9620 hc        1 MOL      0.036809
     90 H38         8.5660    0.9680   -3.3630 hc        1 MOL      0.036809
     91 H39        10.7360    0.2900   -3.4360 hn        1 MOL      0.325344
     92 H40        11.7660    1.1280   -4.5680 hn        1 MOL      0.325344
     93 N9          6.4730    2.9760    0.9980 n         1 MOL     -0.385335
     94 C30         6.0110    3.7390    2.2140 c3        1 MOL     -0.130947
     95 C31         4.4580    3.7770    2.4120 c         1 MOL      0.631921
     96 O16         4.0470    4.4310    3.3390 o         1 MOL     -0.576902
     97 C32         6.6980    3.0510    3.4560 c3        1 MOL      0.255571
     98 C33         6.5570    1.5350    3.3430 c3        1 MOL     -0.300515
     99 C34         8.2440    3.3560    3.5050 c3        1 MOL     -0.300515
    100 H41         6.0930    2.0490    0.9290 hn        1 MOL      0.264999
    101 H42         6.3820    4.7510    2.1110 h1        1 MOL      0.113939
    102 H43         6.1780    3.3670    4.3490 hc        1 MOL     -0.028596
    103 H44         6.8410    1.0640    4.2830 hc        1 MOL      0.071542
    104 H45         5.5600    1.2770    2.9810 hc        1 MOL      0.071542
    105 H46         7.2690    1.1570    2.5990 hc        1 MOL      0.071542
    106 H47         8.3020    4.4160    3.7660 hc        1 MOL      0.071542
    107 H48         8.5890    2.8330    4.3930 hc        1 MOL      0.071542
    108 H49         8.7600    3.0590    2.5880 hc        1 MOL      0.071542
    109 N10         3.5930    3.0830    1.6340 n         1 MOL     -0.579295
    110 C35         2.1820    2.6540    1.8870 c3        1 MOL      0.414956
    111 C36         1.3200    2.8430    0.6430 c         1 MOL      0.463110
    112 O17         1.8970    2.8730   -0.4590 o         1 MOL     -0.512012
    113 C37         2.2130    1.1920    2.3400 c3        1 MOL     -0.128029
    114 C38         0.8440    0.6250    2.6640 c         1 MOL      0.481710
    115 N11         0.3830   -0.2470    1.7760 n         1 MOL     -0.612816
    116 O18         0.1480    1.0350    3.5940 o         1 MOL     -0.563353
    117 H50         3.9880    2.6450    0.8230 hn        1 MOL      0.254175
    118 H51         1.6510    3.2370    2.6450 h1        1 MOL     -0.014101
    119 H52         2.9200    1.1430    3.1690 hc        1 MOL      0.051124
    120 H53         2.5830    0.5760    1.5240 hc        1 MOL      0.051124
    121 H54         0.9440   -0.5530    0.9950 hn        1 MOL      0.332663
    122 H55        -0.5170   -0.6310    2.0380 hn        1 MOL      0.332663
    123 N12        -0.0090    2.8070    0.7790 n         1 MOL     -0.565743
    124 C39        -1.0260    2.9220   -0.3450 c3        1 MOL      0.332574
    125 C40        -2.2460    3.7170    0.1330 c         1 MOL      0.474950
    126 O19        -2.4860    3.7250    1.3400 o         1 MOL     -0.548083
    127 C41        -1.4400    1.5250   -0.8100 c3        1 MOL     -0.217227
    128 C42        -2.5170    1.4290   -1.9200 ca        1 MOL      0.033331
    129 C43        -3.7020    0.6310   -1.7270 ca        1 MOL     -0.087697
    130 C44        -2.3050    2.0160   -3.1850 ca        1 MOL     -0.087697
    131 C45        -4.5720    0.4240   -2.7750 ca        1 MOL     -0.293185
    132 C46        -3.2480    1.8460   -4.1750 ca        1 MOL     -0.293185
    133 C47        -4.3750    1.0500   -3.9730 ca        1 MOL      0.361792
    134 O20        -5.2940    0.9300   -5.0150 oh        1 MOL     -0.595264
    135 H56        -0.3620    2.3390    1.6020 hn        1 MOL      0.295398
    136 H57        -0.5720    3.4420   -1.1850 h1        1 MOL      0.029327
    137 H58        -1.7510    0.9450    0.0560 hc        1 MOL      0.100010
    138 H59        -0.5570    1.0380   -1.2160 hc        1 MOL      0.100010
    139 H60        -3.9100    0.0560   -0.8380 ha        1 MOL      0.120079
    140 H61        -1.4340    2.6230   -3.3920 ha        1 MOL      0.120079
    141 H62        -5.4190   -0.2300   -2.6690 ha        1 MOL      0.169176
    142 H63        -3.2180    2.3930   -5.1050 ha        1 MOL      0.169176
    143 H64        -5.9480    0.3370   -4.6490 ho        1 MOL      0.424694
    144 N13        -3.0140    4.4080   -0.7240 n         1 MOL     -0.643680
    145 C48        -4.2180    5.1350   -0.3190 c3        1 MOL      0.641498
    146 C49        -5.3040    4.6370   -1.2210 c         1 MOL      0.385654
    147 O21        -5.1330    4.7960   -2.4460 o         1 MOL     -0.565314
    148 C50        -3.9950    6.6450   -0.4480 c3        1 MOL     -0.083736
    149 C51        -2.7730    7.2360    0.3500 c3        1 MOL     -0.189820
    150 C52        -2.8320    8.7320    0.1980 c         1 MOL      0.731787
    151 O22        -2.2770    9.1610   -0.8130 o         1 MOL     -0.670016
    152 O23        -3.1260    9.5350    1.1190 o         1 MOL     -0.670016
    153 H65        -2.8490    4.2400   -1.7100 hn        1 MOL      0.285504
    154 H66        -4.4360    4.9170    0.7260 h1        1 MOL     -0.072982
    155 H67        -4.9170    7.0790   -0.0730 hc        1 MOL     -0.004350
    156 H68        -4.0070    6.8940   -1.5110 hc        1 MOL     -0.004350
    157 H69        -1.8370    6.7800    0.0370 hc        1 MOL      0.048228
    158 H70        -2.9000    6.8810    1.3670 hc        1 MOL      0.048228
    159 N14        -6.3680    3.9980   -0.8290 n         1 MOL     -0.365732
    160 C53        -6.5810    3.4670    0.5040 c3        1 MOL     -0.315021
    161 C54        -6.9100    4.5190    1.5640 c         1 MOL      0.520656
    162 O24        -7.7060    5.3740    1.2740 o         1 MOL     -0.510782
    163 C55        -7.6480    2.3420    0.4240 c3        1 MOL      0.666225
    164 C56        -7.1620    1.0160   -0.0800 c3        1 MOL     -0.461098
    165 C57        -8.1390   -0.1730    0.0970 c         1 MOL      0.921548
    166 O25        -7.6680   -1.3060    0.2170 o         1 MOL     -0.769508
    167 O26        -9.3620    0.0010    0.2010 o         1 MOL     -0.769508
    168 H71        -6.9830    3.6880   -1.5750 hn        1 MOL      0.283591
    169 H72        -5.6910    2.9350    0.8580 h1        1 MOL      0.083157
    170 H73        -8.5770    2.7320    0.0090 hc        1 MOL     -0.131926
    171 H74        -7.9220    2.1720    1.4640 hc        1 MOL     -0.131926
    172 H75        -6.2380    0.8080    0.4510 hc        1 MOL      0.058907
    173 H76        -6.9460    1.1830   -1.1280 hc        1 MOL      0.058907
    174 N15        -6.4170    4.3400    2.8200 n         1 MOL     -0.247743
    175 C58        -6.5260    5.2720    3.9710 c3        1 MOL     -0.324487
    176 H77        -7.5590    5.3030    4.3170 h1        1 MOL      0.125963
    177 H78        -5.8820    4.9290    4.7800 h1        1 MOL      0.125963
    178 H79        -6.2180    6.2710    3.6600 h1        1 MOL      0.125963
    179 H80        -5.8920    3.5160    3.0880 hn        1 MOL      0.248929
    180 Ca1        -8.1530   -3.2880   -1.2570 Ca        1 MOL      1.658621
    181 O27        -7.7290   -4.7440   -3.4790 oh        1 MOL     -0.814668
    182 H81        -6.8240   -5.0190   -3.6310 ho        1 MOL      0.378190
    183 H82        -8.2490   -5.2710   -4.0780 ho        1 MOL      0.378190
    184 O28        -8.6570   -5.9520   -1.0080 oh        1 MOL     -0.814668
    185 H83        -8.1560   -6.7050   -1.3210 ho        1 MOL      0.378190
    186 H84        -9.5490   -6.1270   -1.2850 ho        1 MOL      0.378190
    187 O29       -10.4400   -4.0650   -2.4440 oh        1 MOL     -0.814668
    188 H85       -11.2800   -3.9840   -1.9940 ho        1 MOL      0.378190
    189 H86       -10.6670   -4.0360   -3.3730 ho        1 MOL      0.378190
    190 O30        -8.5040   -1.4980   -3.0070 oh        1 MOL     -0.814668
    191 H87        -8.1200   -1.7040   -3.8600 ho        1 MOL      0.378190
    192 H88        -9.3140   -1.0350   -3.2200 ho        1 MOL      0.378190
    193 O31       -10.3780   -2.4130    0.1790 oh        1 MOL     -0.814668
    194 H89       -10.6970   -2.7740    1.0040 ho        1 MOL      0.378190
    195 H90        -9.8810   -1.6380    0.4310 ho        1 MOL      0.378190
@<TRIPOS>BOND
     1    1    2 1   
     2    1    4 1   
     3    1    5 1   
     4    1    6 1   
     5    2    3 2   
     6    2    7 1   
     7    7    8 1   
     8    7   15 1   
     9    8    9 1   
    10    8   11 1   
    11    8   16 1   
    12    9   10 2   
    13    9   19 1   
    14   11   12 1   
    15   11   17 1   
    16   11   18 1   
    17   12   13 1   
    18   12   14 1   
    19   19   20 1   
    20   19   27 1   
    21   20   21 1   
    22   20   23 1   
    23   20   28 1   
    24   21   22 2   
    25   21   38 1   
    26   23   24 1   
    27   23   25 1   
    28   23   29 1   
    29   24   26 1   
    30   24   30 1   
    31   24   31 1   
    32   25   32 1   
    33   25   33 1   
    34   25   34 1   
    35   26   35 1   
    36   26   36 1   
    37   26   37 1   
    38   38   39 1   
    39   38   46 1   
    40   39   40 1   
    41   39   42 1   
    42   39   47 1   
    43   40   41 2   
    44   40   50 1   
    45   42   43 1   
    46   42   48 1   
    47   42   49 1   
    48   43   44 1   
    49   43   45 1   
    50   50   51 1   
    51   50   54 1   
    52   51   52 1   
    53   51   55 1   
    54   51   56 1   
    55   52   53 2   
    56   52   57 1   
    57   57   58 1   
    58   57   65 1   
    59   58   59 1   
    60   58   61 1   
    61   58   66 1   
    62   59   60 2   
    63   59   69 1   
    64   61   62 1   
    65   61   67 1   
    66   61   68 1   
    67   62   63 1   
    68   62   64 1   
    69   69   70 1   
    70   69   73 1   
    71   70   71 1   
    72   70   74 1   
    73   70   75 1   
    74   71   72 2   
    75   71   76 1   
    76   76   77 1   
    77   76   85 1   
    78   77   78 1   
    79   77   80 1   
    80   77   86 1   
    81   78   79 2   
    82   78   93 1   
    83   80   81 1   
    84   80   87 1   
    85   80   88 1   
    86   81   82 1   
    87   81   89 1   
    88   81   90 1   
    89   82   83 1   
    90   82   84 2   
    91   83   91 1   
    92   83   92 1   
    93   93   94 1   
    94   93  100 1   
    95   94   95 1   
    96   94   97 1   
    97   94  101 1   
    98   95   96 2   
    99   95  109 1   
   100   97   98 1   
   101   97   99 1   
   102   97  102 1   
   103   98  103 1   
   104   98  104 1   
   105   98  105 1   
   106   99  106 1   
   107   99  107 1   
   108   99  108 1   
   109  109  110 1   
   110  109  117 1   
   111  110  111 1   
   112  110  113 1   
   113  110  118 1   
   114  111  112 2   
   115  111  123 1   
   116  113  114 1   
   117  113  119 1   
   118  113  120 1   
   119  114  115 1   
   120  114  116 2   
   121  115  121 1   
   122  115  122 1   
   123  123  124 1   
   124  123  135 1   
   125  124  125 1   
   126  124  127 1   
   127  124  136 1   
   128  125  126 2   
   129  125  144 1   
   130  127  128 1   
   131  127  137 1   
   132  127  138 1   
   133  128  129 ar  
   134  128  130 ar  
   135  129  131 ar  
   136  129  139 1   
   137  130  132 ar  
   138  130  140 1   
   139  131  133 ar  
   140  131  141 1   
   141  132  133 ar  
   142  132  142 1   
   143  133  134 1   
   144  134  143 1   
   145  144  145 1   
   146  144  153 1   
   147  145  146 1   
   148  145  148 1   
   149  145  154 1   
   150  146  147 2   
   151  146  159 1   
   152  148  149 1   
   153  148  155 1   
   154  148  156 1   
   155  149  150 1   
   156  149  157 1   
   157  149  158 1   
   158  150  151 1   
   159  150  152 1   
   160  159  160 1   
   161  159  168 1   
   162  160  161 1   
   163  160  163 1   
   164  160  169 1   
   165  161  162 2   
   166  161  174 1   
   167  163  164 1   
   168  163  170 1   
   169  163  171 1   
   170  164  165 1   
   171  164  172 1   
   172  164  173 1   
   173  165  166 1   
   174  165  167 1   
   175  174  175 1   
   176  174  179 1   
   177  175  176 1   
   178  175  177 1   
   179  175  178 1   
   180  181  182 1   
   181  181  183 1   
   182  184  185 1   
   183  184  186 1   
   184  187  188 1   
   185  187  189 1   
   186  190  191 1   
   187  190  192 1   
   188  193  194 1   
   189  193  195 1   
@<TRIPOS>SUBSTRUCTURE
     1 MOL         1 TEMP              0 ****  ****    0 ROOT
