@<TRIPOS>MOLECULE
MOL
  181   177     1     0     0
SMALL
resp


@<TRIPOS>ATOM
      1 C1          5.0800   -1.6740    2.7930 c3        1 MOL     -0.354751
      2 C2          6.4100   -0.9750    2.6930 c         1 MOL      0.636352
      3 O1          6.6130    0.2360    2.5930 o         1 MOL     -0.585064
      4 H1          5.1240   -2.4270    3.5790 hc        1 MOL      0.097218
      5 H2          4.3040   -0.9460    3.0300 hc        1 MOL      0.097218
      6 H3          4.8500   -2.1550    1.8420 hc        1 MOL      0.097218
      7 N1          7.4990   -1.7820    2.6500 n         1 MOL     -0.613738
      8 C3          8.9350   -1.4410    2.2880 c3        1 MOL      0.294981
      9 C4          9.0350   -1.0010    0.8050 c         1 MOL      0.384291
     10 O2          9.0140   -1.8400   -0.1260 o         1 MOL     -0.519241
     11 C5          9.8470   -2.6900    2.5870 c3        1 MOL     -0.287284
     12 C6         11.3350   -2.3450    2.3770 c         1 MOL      0.776495
     13 O3         12.0870   -3.3280    2.6170 o         1 MOL     -0.745722
     14 O4         11.6170   -1.1540    2.3020 o         1 MOL     -0.745722
     15 H4          7.3510   -2.7640    2.8400 hn        1 MOL      0.289509
     16 H5          9.2040   -0.5470    2.8680 h1        1 MOL      0.019630
     17 H6          9.6160   -3.5000    1.9010 hc        1 MOL      0.052849
     18 H7          9.7420   -2.8780    3.6560 hc        1 MOL      0.052849
     19 N2          9.2050    0.3030    0.5490 n         1 MOL     -0.252361
     20 C7          9.4020    0.8010   -0.7870 c3        1 MOL      0.089733
     21 C8          8.0080    0.6420   -1.4550 c         1 MOL      0.407247
     22 O5          7.9390    0.8110   -2.6800 o         1 MOL     -0.514640
     23 C9          9.9580    2.2380   -0.6230 c3        1 MOL     -0.303033
     24 H8          9.1090    0.9050    1.3500 hn        1 MOL      0.226350
     25 H9         10.1730    0.2350   -1.3230 h1        1 MOL      0.108301
     26 H10         9.2450    2.8900   -0.1170 hc        1 MOL      0.082139
     27 H11        10.8440    2.0020   -0.0260 hc        1 MOL      0.082139
     28 H12        10.2490    2.7370   -1.5480 hc        1 MOL      0.082139
     29 N3          6.9000    0.4850   -0.6800 n         1 MOL     -0.322372
     30 C10         5.5450   -0.0090   -1.0480 c3        1 MOL      0.010644
     31 C11         4.9760    0.6570   -2.2890 c         1 MOL      0.305607
     32 O6          4.7460   -0.0680   -3.3210 o         1 MOL     -0.439538
     33 C12         5.6180   -1.5020   -1.2200 c3        1 MOL     -0.204003
     34 C13         4.3030   -2.1940   -1.3250 c         1 MOL      0.630454
     35 O7          4.2190   -3.2100   -2.0850 o         1 MOL     -0.697422
     36 O8          3.2460   -1.6990   -0.8560 o         1 MOL     -0.697422
     37 H13         7.1090    0.5290    0.3040 hn        1 MOL      0.192443
     38 H14         4.9150    0.1910   -0.1850 h1        1 MOL      0.063715
     39 H15         6.2410   -1.8250   -0.3880 hc        1 MOL      0.110237
     40 H16         6.2480   -1.6930   -2.0870 hc        1 MOL      0.110237
     41 N4          4.8660    1.9890   -2.2760 n         1 MOL     -0.088107
     42 C14         4.6140    2.8080   -3.5330 c3        1 MOL     -0.343065
     43 C15         3.2970    3.5520   -3.6910 c         1 MOL      0.656390
     44 O9          3.1040    4.1230   -4.7240 o         1 MOL     -0.568025
     45 H17         5.1110    2.4660   -1.4270 hn        1 MOL      0.197167
     46 H18         4.6830    2.1810   -4.4120 h1        1 MOL      0.153600
     47 H19         5.4090    3.5510   -3.4360 h1        1 MOL      0.153600
     48 N5          2.4560    3.5170   -2.6590 n         1 MOL     -0.486127
     49 C16         1.0730    3.9840   -2.8430 c3        1 MOL      0.197433
     50 C17         0.7390    5.1340   -1.8630 c         1 MOL      0.417515
     51 O10         1.2240    5.1540   -0.7270 o         1 MOL     -0.478407
     52 C18         0.1270    2.7560   -2.7420 c3        1 MOL     -0.178856
     53 C19        -1.3080    3.0580   -3.2160 c         1 MOL      0.599287
     54 N6         -2.1820    3.2820   -2.2420 n         1 MOL     -0.700167
     55 O11        -1.7200    3.0580   -4.3590 o         1 MOL     -0.571050
     56 H20         2.7260    3.0520   -1.8070 hn        1 MOL      0.243317
     57 H21         0.9770    4.3570   -3.8580 h1        1 MOL     -0.002854
     58 H22         0.2280    2.4380   -1.7040 hc        1 MOL      0.102926
     59 H23         0.5040    1.9500   -3.3550 hc        1 MOL      0.102926
     60 H24        -1.9270    3.2380   -1.2600 hn        1 MOL      0.322877
     61 H25        -3.1300    3.5810   -2.4300 hn        1 MOL      0.322877
     62 N7         -0.1680    6.0560   -2.3020 n         1 MOL     -0.303320
     63 C20        -0.5920    7.2800   -1.6390 c3        1 MOL     -0.402602
     64 C21        -1.7190    6.9570   -0.6710 c         1 MOL      0.573765
     65 O12        -2.7650    6.4450   -1.1180 o         1 MOL     -0.535695
     66 H26        -0.6880    5.9700   -3.1690 hn        1 MOL      0.299226
     67 H27        -1.0180    7.9530   -2.3850 h1        1 MOL      0.174463
     68 H28         0.2700    7.6110   -1.0720 h1        1 MOL      0.174463
     69 N8         -1.6490    7.2400    0.6060 n         1 MOL     -0.352670
     70 C22        -2.7330    7.0630    1.6050 c3        1 MOL     -0.232375
     71 C23        -3.0500    5.6440    2.1480 c         1 MOL      0.477210
     72 O13        -4.1440    5.4800    2.6900 o         1 MOL     -0.557557
     73 C24        -2.6200    8.1210    2.7240 c3        1 MOL      0.452933
     74 C25        -1.4800    7.9840    3.7460 c3        1 MOL     -0.325217
     75 O14        -2.4630    9.4170    2.1110 oh        1 MOL     -0.646053
     76 H29        -0.7980    7.7110    0.8770 hn        1 MOL      0.246906
     77 H30        -3.6550    7.2930    1.0660 h1        1 MOL      0.158122
     78 H31        -3.5780    8.1740    3.2280 h1        1 MOL      0.051782
     79 H32        -1.5630    9.5060    1.7760 ho        1 MOL      0.375195
     80 H33        -1.6490    7.0720    4.3100 hc        1 MOL      0.077086
     81 H34        -0.4900    7.9760    3.2900 hc        1 MOL      0.077086
     82 H35        -1.4820    8.8060    4.4700 hc        1 MOL      0.077086
     83 N9         -2.1230    4.7230    2.0310 n         1 MOL     -0.205154
     84 C26        -2.3970    3.3280    2.4070 c3        1 MOL      0.026638
     85 C27        -1.8850    2.3850    1.3160 c         1 MOL      0.371000
     86 O15        -1.0990    2.8110    0.4240 o         1 MOL     -0.402753
     87 C28        -1.8160    2.9950    3.8020 c3        1 MOL     -0.021059
     88 C29        -0.3200    3.1960    4.1200 c3        1 MOL     -0.007650
     89 C30        -2.7150    3.6750    4.8400 c3        1 MOL     -0.197117
     90 C31         0.7060    2.6680    3.2190 c3        1 MOL     -0.015060
     91 H36        -1.3290    4.9550    1.4350 hn        1 MOL      0.200436
     92 H37        -3.4660    3.1370    2.4290 h1        1 MOL      0.096506
     93 H38        -1.9290    1.9200    3.9540 hc        1 MOL      0.032198
     94 H39        -0.1260    2.7800    5.1080 hc        1 MOL      0.008913
     95 H40        -0.1420    4.2670    4.2220 hc        1 MOL      0.008913
     96 H41        -2.6470    4.7530    4.6950 hc        1 MOL      0.055736
     97 H42        -3.7630    3.3660    4.8880 hc        1 MOL      0.055736
     98 H43        -2.3530    3.4840    5.8560 hc        1 MOL      0.055736
     99 H44         0.6930    1.5870    3.0630 hc        1 MOL      0.016500
    100 H45         0.7620    3.1500    2.2430 hc        1 MOL      0.016500
    101 H46         1.6630    2.8760    3.7020 hc        1 MOL      0.016500
    102 N10        -2.4570    1.1840    1.1910 n         1 MOL     -0.495043
    103 C32        -2.1720    0.0080    0.2510 c3        1 MOL      0.065281
    104 C33        -3.4730   -0.7110   -0.2270 c         1 MOL      0.654800
    105 O16        -3.3740   -1.8320   -0.6480 o         1 MOL     -0.483157
    106 C34        -1.2120   -0.8450    0.9880 c3        1 MOL     -0.219752
    107 C35        -0.5730   -1.9320    0.1550 c         1 MOL      0.601652
    108 O17        -0.1970   -3.0420    0.6420 o         1 MOL     -0.699737
    109 O18        -0.1550   -1.5440   -0.9740 o         1 MOL     -0.699737
    110 H47        -3.0990    1.0130    1.9620 hn        1 MOL      0.271832
    111 H48        -1.7630    0.3720   -0.6870 h1        1 MOL      0.095822
    112 H49        -1.5760   -1.4220    1.8420 hc        1 MOL      0.106710
    113 H50        -0.3960   -0.2500    1.3870 hc        1 MOL      0.106710
    114 N11        -4.6090   -0.0120   -0.1070 n         1 MOL     -0.673263
    115 C36        -5.8670   -0.5570   -0.5670 c3        1 MOL      0.502521
    116 C37        -6.4060   -1.6960    0.3140 c         1 MOL      0.123215
    117 O19        -6.3600   -1.7340    1.5870 o         1 MOL     -0.474198
    118 C38        -6.7900    0.6410   -0.6870 c3        1 MOL     -0.319440
    119 C39        -8.2090    0.3860   -1.2520 ca        1 MOL      0.103979
    120 C40        -8.4560    0.5850   -2.6440 ca        1 MOL     -0.183377
    121 C41        -9.2080   -0.1240   -0.3400 ca        1 MOL     -0.183377
    122 C42        -9.7940    0.3450   -3.1300 ca        1 MOL     -0.092815
    123 C43       -10.3950   -0.5320   -0.9400 ca        1 MOL     -0.092815
    124 C44       -10.7170   -0.3410   -2.3200 ca        1 MOL     -0.146497
    125 H51        -4.5990    0.9510    0.2030 hn        1 MOL      0.308818
    126 H52        -5.6810   -1.0330   -1.5310 h1        1 MOL     -0.025058
    127 H53        -6.3490    1.3850   -1.3460 hc        1 MOL      0.114008
    128 H54        -6.9230    1.0300    0.3230 hc        1 MOL      0.114008
    129 H55        -7.6540    0.9180   -3.2820 ha        1 MOL      0.149211
    130 H56        -9.0600   -0.3490    0.7080 ha        1 MOL      0.149211
    131 H57        -9.9660    0.4270   -4.2030 ha        1 MOL      0.106096
    132 H58       -11.1480   -1.0290   -0.3490 ha        1 MOL      0.106096
    133 H59       -11.6670   -0.6580   -2.7290 ha        1 MOL      0.117845
    134 N12        -6.9520   -2.8210   -0.2030 n         1 MOL     -0.016289
    135 C45        -7.4570   -3.9940    0.5790 c3        1 MOL      0.016212
    136 C46        -6.2690   -4.5670    1.3630 c         1 MOL      0.372258
    137 O20        -6.4990   -5.3600    2.2670 o         1 MOL     -0.534662
    138 C47        -8.1810   -4.9810   -0.4980 c3        1 MOL     -0.074274
    139 C48        -8.6220   -3.9720   -1.5940 c3        1 MOL     -0.116431
    140 C49        -7.3890   -3.0140   -1.6020 c3        1 MOL      0.126704
    141 H60        -8.1860   -3.7210    1.3410 h1        1 MOL      0.078571
    142 H61        -7.4180   -5.6600   -0.8720 hc        1 MOL      0.061356
    143 H62        -9.0620   -5.5330   -0.1690 hc        1 MOL      0.061356
    144 H63        -8.6740   -4.4490   -2.5720 hc        1 MOL      0.039436
    145 H64        -9.5110   -3.3830   -1.3630 hc        1 MOL      0.039436
    146 H65        -6.6550   -3.5390   -2.2150 h1        1 MOL      0.005531
    147 H66        -7.6120   -2.0960   -2.1570 h1        1 MOL      0.005531
    148 N13        -4.9950   -4.2910    0.9380 n         1 MOL     -0.161376
    149 C50        -3.7990   -4.9150    1.6090 c3        1 MOL     -0.090971
    150 C51        -3.2750   -4.2260    2.8870 c         1 MOL      0.435422
    151 O21        -2.3350   -4.6420    3.5720 o         1 MOL     -0.508941
    152 C52        -2.8260   -5.2880    0.5180 c3        1 MOL      0.435820
    153 C53        -1.7450   -6.3890    0.8450 c3        1 MOL     -0.352878
    154 C54        -0.7280   -6.3740   -0.3130 c         1 MOL      0.752677
    155 O22         0.3840   -5.7300   -0.2800 o         1 MOL     -0.748097
    156 O23        -1.0650   -6.8470   -1.4370 o         1 MOL     -0.748097
    157 H67        -4.8230   -3.6780    0.1510 hn        1 MOL      0.081716
    158 H68        -4.1070   -5.9040    1.9640 h1        1 MOL      0.076941
    159 H69        -2.2990   -4.4240    0.1220 hc        1 MOL     -0.088632
    160 H70        -3.3780   -5.7200   -0.3100 hc        1 MOL     -0.088632
    161 H71        -2.1510   -7.3630    1.0900 hc        1 MOL      0.053507
    162 H72        -1.1800   -5.9610    1.6660 hc        1 MOL      0.053507
    163 N14        -4.0270   -3.2640    3.4020 n         1 MOL     -0.184114
    164 C55        -3.8350   -2.6620    4.6720 c3        1 MOL     -0.163084
    165 H73        -3.3660   -1.6860    4.5440 h1        1 MOL      0.071467
    166 H74        -4.7990   -2.5410    5.1670 h1        1 MOL      0.071467
    167 H75        -3.1910   -3.2970    5.2810 h1        1 MOL      0.071467
    168 H76        -4.7130   -2.8240    2.8070 hn        1 MOL      0.210688
    169 Ca1         1.5470   -3.5910   -1.2280 Ca        1 MOL      1.736736
    170 O24        -0.8150   -4.2510   -2.6650 oh        1 MOL     -0.806593
    171 H77        -1.2250   -3.9630   -3.4870 ho        1 MOL      0.399025
    172 H78        -1.3680   -4.9730   -2.3650 ho        1 MOL      0.399025
    173 O25         2.4830   -5.5530   -2.7970 oh        1 MOL     -0.806593
    174 H79         3.4230   -5.7650   -2.7770 ho        1 MOL      0.399025
    175 H80         2.0530   -6.4020   -2.9030 ho        1 MOL      0.399025
    176 O26         3.3750   -4.9230    0.3700 oh        1 MOL     -0.806593
    177 H81         3.9720   -5.6600    0.4340 ho        1 MOL      0.399025
    178 H82         3.1260   -4.7320    1.2660 ho        1 MOL      0.399025
    179 O27         1.5310   -2.8690   -3.8290 oh        1 MOL     -0.806593
    180 H83         1.2060   -2.1880   -4.4170 ho        1 MOL      0.399025
    181 H84         2.3550   -3.1490   -4.2210 ho        1 MOL      0.399025
@<TRIPOS>BOND
     1    1    2 1   
     2    1    4 1   
     3    1    5 1   
     4    1    6 1   
     5    2    3 2   
     6    2    7 1   
     7    7    8 1   
     8    7   15 1   
     9    8    9 1   
    10    8   11 1   
    11    8   16 1   
    12    9   10 2   
    13    9   19 1   
    14   11   12 1   
    15   11   17 1   
    16   11   18 1   
    17   12   13 1   
    18   12   14 1   
    19   19   20 1   
    20   19   24 1   
    21   20   21 1   
    22   20   23 1   
    23   20   25 1   
    24   21   22 2   
    25   21   29 1   
    26   23   26 1   
    27   23   27 1   
    28   23   28 1   
    29   29   30 1   
    30   29   37 1   
    31   30   31 1   
    32   30   33 1   
    33   30   38 1   
    34   31   32 2   
    35   31   41 1   
    36   33   34 1   
    37   33   39 1   
    38   33   40 1   
    39   34   35 1   
    40   34   36 1   
    41   41   42 1   
    42   41   45 1   
    43   42   43 1   
    44   42   46 1   
    45   42   47 1   
    46   43   44 2   
    47   43   48 1   
    48   48   49 1   
    49   48   56 1   
    50   49   50 1   
    51   49   52 1   
    52   49   57 1   
    53   50   51 2   
    54   50   62 1   
    55   52   53 1   
    56   52   58 1   
    57   52   59 1   
    58   53   54 1   
    59   53   55 2   
    60   54   60 1   
    61   54   61 1   
    62   62   63 1   
    63   62   66 1   
    64   63   64 1   
    65   63   67 1   
    66   63   68 1   
    67   64   65 2   
    68   64   69 1   
    69   69   70 1   
    70   69   76 1   
    71   70   71 1   
    72   70   73 1   
    73   70   77 1   
    74   71   72 2   
    75   71   83 1   
    76   73   74 1   
    77   73   75 1   
    78   73   78 1   
    79   74   80 1   
    80   74   81 1   
    81   74   82 1   
    82   75   79 1   
    83   83   84 1   
    84   83   91 1   
    85   84   85 1   
    86   84   87 1   
    87   84   92 1   
    88   85   86 2   
    89   85  102 1   
    90   87   88 1   
    91   87   89 1   
    92   87   93 1   
    93   88   90 1   
    94   88   94 1   
    95   88   95 1   
    96   89   96 1   
    97   89   97 1   
    98   89   98 1   
    99   90   99 1   
   100   90  100 1   
   101   90  101 1   
   102  102  103 1   
   103  102  110 1   
   104  103  104 1   
   105  103  106 1   
   106  103  111 1   
   107  104  105 2   
   108  104  114 1   
   109  106  107 1   
   110  106  112 1   
   111  106  113 1   
   112  107  108 1   
   113  107  109 1   
   114  114  115 1   
   115  114  125 1   
   116  115  116 1   
   117  115  118 1   
   118  115  126 1   
   119  116  117 2   
   120  116  134 1   
   121  118  119 1   
   122  118  127 1   
   123  118  128 1   
   124  119  120 ar  
   125  119  121 ar  
   126  120  122 ar  
   127  120  129 1   
   128  121  123 ar  
   129  121  130 1   
   130  122  124 ar  
   131  122  131 1   
   132  123  124 ar  
   133  123  132 1   
   134  124  133 1   
   135  134  135 1   
   136  134  140 1   
   137  135  136 1   
   138  135  138 1   
   139  135  141 1   
   140  136  137 2   
   141  136  148 1   
   142  138  139 1   
   143  138  142 1   
   144  138  143 1   
   145  139  140 1   
   146  139  144 1   
   147  139  145 1   
   148  140  146 1   
   149  140  147 1   
   150  148  149 1   
   151  148  157 1   
   152  149  150 1   
   153  149  152 1   
   154  149  158 1   
   155  150  151 2   
   156  150  163 1   
   157  152  153 1   
   158  152  159 1   
   159  152  160 1   
   160  153  154 1   
   161  153  161 1   
   162  153  162 1   
   163  154  155 1   
   164  154  156 1   
   165  163  164 1   
   166  163  168 1   
   167  164  165 1   
   168  164  166 1   
   169  164  167 1   
   170  170  171 1   
   171  170  172 1   
   172  173  174 1   
   173  173  175 1   
   174  176  177 1   
   175  176  178 1   
   176  179  180 1   
   177  179  181 1   
@<TRIPOS>SUBSTRUCTURE
     1 MOL         1 TEMP              0 ****  ****    0 ROOT
