@<TRIPOS>MOLECULE
MOL
  185   180     1     0     0
SMALL
resp


@<TRIPOS>ATOM
      1 C1         -0.6330   -5.1470    5.2120 c3        1 MOL     -0.380282
      2 C2         -0.4130   -4.5210    3.7780 c         1 MOL      0.720933
      3 O1         -1.3170   -4.5140    2.9120 o         1 MOL     -0.597288
      4 H1          0.3240   -5.2240    5.7260 hc        1 MOL      0.105810
      5 H2         -1.3030   -4.5090    5.7880 hc        1 MOL      0.105810
      6 H3         -1.0720   -6.1390    5.1120 hc        1 MOL      0.105810
      7 N1          0.7540   -3.8240    3.5720 n         1 MOL     -0.586225
      8 C3          1.0610   -3.2110    2.2810 c3        1 MOL     -0.072565
      9 C4          1.5470   -4.2470    1.2720 c         1 MOL      0.692474
     10 O2          2.6140   -4.7740    1.3890 o         1 MOL     -0.536116
     11 C5          2.1170   -2.1400    2.5480 c3        1 MOL     -0.084900
     12 C6          2.6500   -1.3810    1.3080 c         1 MOL      0.435520
     13 O3          3.4910   -0.5200    1.4760 o         1 MOL     -0.607828
     14 O4          2.2780   -1.7610    0.1980 o         1 MOL     -0.607828
     15 H4          1.4170   -3.7260    4.3200 hn        1 MOL      0.333539
     16 H5          0.1880   -2.7550    1.8310 h1        1 MOL     -0.004364
     17 H6          2.9550   -2.5630    3.0890 hc        1 MOL      0.082242
     18 H7          1.6730   -1.4420    3.2640 hc        1 MOL      0.082242
     19 N2          0.8570   -4.4650    0.1190 n         1 MOL     -0.499423
     20 C7          1.1980   -5.3040   -1.0870 c3        1 MOL     -0.030711
     21 C8          2.6340   -5.1940   -1.6800 c         1 MOL      0.574947
     22 O5          3.0750   -6.0810   -2.3780 o         1 MOL     -0.572684
     23 C9          0.1600   -5.0900   -2.1650 c3        1 MOL     -0.139590
     24 C10         0.0300   -3.6340   -2.6010 c3        1 MOL      0.100642
     25 C11        -0.8510   -3.6010   -3.7990 c3        1 MOL     -0.038738
     26 C12        -1.2050   -2.2140   -4.1970 c3        1 MOL      0.048499
     27 N3         -2.3240   -2.3090   -5.2340 n4        1 MOL     -0.442095
     28 H8         -0.0090   -3.9370    0.1000 hn        1 MOL      0.324758
     29 H9          1.2270   -6.3490   -0.7930 h1        1 MOL      0.110439
     30 H10        -0.8360   -5.3820   -1.8280 hc        1 MOL      0.063105
     31 H11         0.3030   -5.6810   -3.0710 hc        1 MOL      0.063105
     32 H12         1.0160   -3.2580   -2.8790 hc        1 MOL     -0.007462
     33 H13        -0.4530   -2.9330   -1.9260 hc        1 MOL     -0.007462
     34 H14        -1.7630   -4.1410   -3.5670 hc        1 MOL      0.038471
     35 H15        -0.5070   -4.2010   -4.6420 hc        1 MOL      0.038471
     36 H16        -0.3980   -1.6880   -4.6990 hx        1 MOL      0.068899
     37 H17        -1.5810   -1.5440   -3.4180 hx        1 MOL      0.068899
     38 H18        -3.2070   -2.4610   -4.7800 hn        1 MOL      0.339680
     39 H19        -2.3770   -1.4060   -5.6910 hn        1 MOL      0.339680
     40 H20        -2.0790   -2.9880   -5.9360 hn        1 MOL      0.339680
     41 N4          3.3950   -4.0880   -1.4350 n         1 MOL     -0.195325
     42 C13         4.7030   -3.9380   -2.0720 c3        1 MOL      0.050243
     43 C14         5.6820   -3.4290   -0.9520 c         1 MOL      0.372185
     44 O6          6.9040   -3.5290   -1.0540 o         1 MOL     -0.540064
     45 C15         4.7460   -3.0300   -3.3380 c3        1 MOL     -0.339205
     46 C16         4.5000   -1.5820   -3.0540 c         1 MOL      0.906833
     47 O7          4.6840   -0.7880   -3.9330 o         1 MOL     -0.729005
     48 O8          4.2000   -1.2560   -1.8570 o         1 MOL     -0.729005
     49 H21         3.0240   -3.3110   -0.9070 hn        1 MOL      0.021209
     50 H22         4.9830   -4.9530   -2.3260 h1        1 MOL      0.111901
     51 H23         4.1050   -3.4600   -4.1090 hc        1 MOL      0.088264
     52 H24         5.7370   -3.0510   -3.7900 hc        1 MOL      0.088264
     53 N5          5.1860   -2.9230    0.1950 n         1 MOL      0.002930
     54 C17         5.9720   -2.4380    1.2650 c3        1 MOL     -0.398790
     55 C18         6.6560   -1.0520    1.0940 c         1 MOL      0.569810
     56 O9          7.5340   -0.7350    1.9190 o         1 MOL     -0.553595
     57 H25         4.2260   -2.6120    0.1500 hn        1 MOL      0.032247
     58 H26         6.8080   -3.1330    1.3260 h1        1 MOL      0.169952
     59 H27         5.3730   -2.5270    2.1720 h1        1 MOL      0.169952
     60 N6          6.3870   -0.3480   -0.0180 n         1 MOL     -0.126097
     61 C19         6.8620    0.9840   -0.3800 c3        1 MOL     -0.053120
     62 C20         5.6990    2.0150   -0.4510 c         1 MOL      0.563894
     63 O10         4.4950    1.6510   -0.3180 o         1 MOL     -0.512317
     64 C21         7.7370    0.9500   -1.6450 c3        1 MOL     -0.282854
     65 C22         9.0000    0.1310   -1.5330 c         1 MOL      0.662175
     66 N7          9.6800   -0.2050   -2.6440 n         1 MOL     -0.802320
     67 O11         9.5680   -0.0290   -0.4010 o         1 MOL     -0.499748
     68 H28         5.8650   -0.8660   -0.7110 hn        1 MOL      0.211273
     69 H29         7.5130    1.3510    0.4150 h1        1 MOL      0.093673
     70 H30         8.0460    1.9640   -1.9120 hc        1 MOL      0.059583
     71 H31         7.1580    0.7040   -2.5340 hc        1 MOL      0.059583
     72 H32         9.2140   -0.1220   -3.5360 hn        1 MOL      0.371355
     73 H33        10.4810   -0.8050   -2.5500 hn        1 MOL      0.371355
     74 N8          6.0130    3.3080   -0.4980 n         1 MOL     -0.462234
     75 C23         5.0600    4.3530   -0.7380 c3        1 MOL     -0.006523
     76 C24         3.9080    4.4170    0.3070 c         1 MOL      0.585437
     77 O12         4.2050    4.3460    1.4990 o         1 MOL     -0.482622
     78 H34         6.9790    3.5760   -0.6340 hn        1 MOL      0.340622
     79 H35         4.6240    4.2330   -1.7350 h1        1 MOL      0.045884
     80 H36         5.6380    5.2780   -0.7860 h1        1 MOL      0.045884
     81 N9          2.6310    4.4540   -0.1220 n         1 MOL     -0.712495
     82 C25         1.4950    4.3780    0.7070 c3        1 MOL      0.532596
     83 C26         1.1100    3.0070    1.3240 c         1 MOL      0.324843
     84 O13         1.5810    1.9200    0.9610 o         1 MOL     -0.401808
     85 C27         0.2240    4.9070   -0.0270 c3        1 MOL     -0.261733
     86 C28         0.2940    6.3060   -0.5020 ca        1 MOL     -0.007029
     87 C29         0.3370    7.3700    0.4340 ca        1 MOL     -0.072399
     88 C30         0.6460    6.4850   -1.8780 ca        1 MOL     -0.072399
     89 C31         0.3480    8.6320   -0.1010 ca        1 MOL     -0.326352
     90 C32         0.6770    7.7870   -2.3580 ca        1 MOL     -0.326352
     91 C33         0.4810    8.8630   -1.4830 ca        1 MOL      0.401056
     92 O14         0.3430   10.0850   -1.9740 oh        1 MOL     -0.452552
     93 H37         2.4580    4.3820   -1.1130 hn        1 MOL      0.271929
     94 H38         1.5910    5.0620    1.5450 h1        1 MOL      0.026603
     95 H39        -0.5980    4.8050    0.6730 hc        1 MOL      0.052734
     96 H40        -0.0450    4.2300   -0.8380 hc        1 MOL      0.052734
     97 H41         0.1590    7.1920    1.4800 ha        1 MOL      0.117185
     98 H42         0.6860    5.6550   -2.5770 ha        1 MOL      0.117185
     99 H43         0.2670    9.4590    0.5940 ha        1 MOL      0.165998
    100 H44         0.8510    7.9580   -3.4110 ha        1 MOL      0.165998
    101 H45         0.4180   10.1490   -2.9310 ho        1 MOL      0.354279
    102 N10         0.3580    3.1070    2.4150 n         1 MOL     -0.469590
    103 C34         0.0180    2.0880    3.4420 c3        1 MOL      0.067204
    104 C35        -0.7420    0.8800    2.8510 c         1 MOL      0.458108
    105 O15        -0.4580    0.3770    1.7700 o         1 MOL     -0.502895
    106 C36         1.2450    1.8780    4.3570 c3        1 MOL      0.328274
    107 C37         0.8660    1.1310    5.6500 c3        1 MOL      0.024345
    108 C38         2.0070    3.1250    4.7480 c3        1 MOL     -0.093222
    109 C39         2.1090    0.9340    6.5430 c3        1 MOL     -0.069528
    110 H46        -0.0390    4.0150    2.6260 hn        1 MOL      0.279841
    111 H47        -0.6720    2.5750    4.1350 h1        1 MOL     -0.009363
    112 H48         1.9690    1.2580    3.8310 hc        1 MOL     -0.019285
    113 H49         0.4500    0.1700    5.3500 hc        1 MOL     -0.048202
    114 H50         0.0750    1.6070    6.2310 hc        1 MOL     -0.048202
    115 H51         1.4340    3.4830    5.6030 hc        1 MOL      0.004403
    116 H52         3.0150    2.9230    5.1220 hc        1 MOL      0.004403
    117 H53         2.0370    3.8660    3.9430 hc        1 MOL      0.004403
    118 H54         2.2880    1.8710    7.0830 hc        1 MOL      0.028354
    119 H55         1.9560    0.2610    7.3810 hc        1 MOL      0.028354
    120 H56         2.9210    0.4700    5.9710 hc        1 MOL      0.028354
    121 N11        -1.7320    0.3370    3.5550 n         1 MOL     -0.416257
    122 C40        -2.3660   -0.9570    3.2880 c3        1 MOL     -0.253647
    123 C41        -3.4260   -0.9780    2.1030 c         1 MOL      0.433617
    124 O16        -4.0740   -1.9710    1.9430 o         1 MOL     -0.462574
    125 C42        -2.9630   -1.3640    4.6280 c3        1 MOL      0.268937
    126 O17        -1.9640   -1.3380    5.5450 oh        1 MOL     -0.615272
    127 H57        -2.0010    0.8190    4.3960 hn        1 MOL      0.278511
    128 H58        -1.5420   -1.6150    3.0400 h1        1 MOL      0.361945
    129 H59        -3.4430   -2.3330    4.7230 h1        1 MOL      0.036635
    130 H60        -3.6730   -0.6050    4.9700 h1        1 MOL      0.036635
    131 H61        -2.2090   -0.6980    6.2230 ho        1 MOL      0.401754
    132 N12        -3.7280    0.1550    1.4450 n         1 MOL     -0.297909
    133 C43        -4.7560    0.1590    0.4270 c3        1 MOL     -0.000117
    134 C44        -4.4480   -0.7890   -0.7470 c         1 MOL      0.732329
    135 O18        -3.3050   -0.8710   -1.1640 o         1 MOL     -0.617463
    136 C45        -4.9110    1.5200   -0.2300 c3        1 MOL     -0.431219
    137 H62        -3.2030    1.0120    1.5950 hn        1 MOL      0.257093
    138 H63        -5.7050   -0.0090    0.9330 h1        1 MOL      0.124585
    139 H64        -5.2110    2.2450    0.5300 hc        1 MOL      0.126964
    140 H65        -3.8860    1.7790   -0.5230 hc        1 MOL      0.126964
    141 H66        -5.5880    1.4850   -1.0890 hc        1 MOL      0.126964
    142 N13        -5.3660   -1.6440   -1.2780 n         1 MOL     -0.670777
    143 C46        -6.8340   -1.7930   -1.0150 c3        1 MOL      0.327082
    144 C47        -7.6440   -0.8790   -1.9020 c         1 MOL      0.433150
    145 O19        -7.1100   -0.4470   -2.9510 o         1 MOL     -0.584738
    146 C48        -7.2780   -3.2750   -1.0730 c3        1 MOL     -0.051379
    147 H67        -5.0610   -2.2090   -2.0600 hn        1 MOL      0.321420
    148 H68        -6.9140   -1.4710    0.0240 h1        1 MOL     -0.029687
    149 H69        -6.7750   -3.9480   -0.3820 hc        1 MOL      0.024793
    150 H70        -8.3630   -3.3150   -0.9270 hc        1 MOL      0.024793
    151 H71        -7.0990   -3.6870   -2.0650 hc        1 MOL      0.024793
    152 N14        -8.8330   -0.4860   -1.5920 n         1 MOL     -0.427519
    153 C49        -9.4780   -0.7820   -0.3310 c3        1 MOL      0.072372
    154 C50        -9.3260    0.3850    0.6700 c         1 MOL      0.469691
    155 O20        -8.9690    0.1710    1.8330 o         1 MOL     -0.553698
    156 C51       -10.9260   -1.1670   -0.5640 c3        1 MOL      0.106007
    157 C52       -12.0000   -0.0900   -0.9030 c3        1 MOL     -0.217004
    158 C53       -11.8260    0.5790   -2.2190 c         1 MOL      0.683343
    159 O21       -12.3120    0.1750   -3.3200 o         1 MOL     -0.666146
    160 O22       -11.0050    1.5420   -2.2700 o         1 MOL     -0.666146
    161 H72        -9.3190    0.1000   -2.2690 hn        1 MOL      0.311428
    162 H73        -9.0460   -1.6130    0.2230 h1        1 MOL      0.018911
    163 H74       -11.2200   -1.5720    0.4050 hc        1 MOL     -0.009639
    164 H75       -10.9770   -1.9590   -1.3090 hc        1 MOL     -0.009639
    165 H76       -12.0080    0.5980   -0.0580 hc        1 MOL      0.032325
    166 H77       -12.9220   -0.6440   -1.1100 hc        1 MOL      0.032325
    167 N15        -9.6360    1.6610    0.2510 n         1 MOL     -0.251482
    168 C54        -9.6820    2.8510    1.1150 c3        1 MOL      0.015887
    169 H78       -10.7170    3.1760    1.2290 h1        1 MOL      0.034605
    170 H79        -9.2680    2.6060    2.0920 h1        1 MOL      0.034605
    171 H80        -9.0990    3.6530    0.6620 h1        1 MOL      0.034605
    172 H81        -9.9740    1.7560   -0.6920 hn        1 MOL      0.167600
    173 Ca1         2.3980    0.4810   -1.1940 Ca        1 MOL      1.699823
    174 O23         3.9140    1.4060   -3.2520 oh        1 MOL     -0.828509
    175 O24        -0.2210   -0.1470   -0.7020 oh        1 MOL     -0.828509
    176 H82         4.5330    2.0890   -3.4760 ho        1 MOL      0.396037
    177 H83        -1.1430   -0.2880   -0.9170 ho        1 MOL      0.396037
    178 H84         4.2320    0.6290   -3.7210 ho        1 MOL      0.396037
    179 H85        -0.2090   -0.0890    0.2550 ho        1 MOL      0.396037
    180 O25         1.1940   -0.2490   -3.3820 oh        1 MOL     -0.828509
    181 H86         0.2510   -0.1500   -3.2370 ho        1 MOL      0.396037
    182 H87         1.2510   -0.7300   -4.2140 ho        1 MOL      0.396037
    183 O26         1.1620    2.5440   -2.2900 oh        1 MOL     -0.828509
    184 H88         0.2820    2.9370   -2.2780 ho        1 MOL      0.396037
    185 H89         1.6020    2.9730   -3.0200 ho        1 MOL      0.396037
@<TRIPOS>BOND
     1    1    2 1   
     2    1    4 1   
     3    1    5 1   
     4    1    6 1   
     5    2    3 2   
     6    2    7 1   
     7    7    8 1   
     8    7   15 1   
     9    8    9 1   
    10    8   11 1   
    11    8   16 1   
    12    9   10 2   
    13    9   19 1   
    14   11   12 1   
    15   11   17 1   
    16   11   18 1   
    17   12   13 1   
    18   12   14 1   
    19   19   20 1   
    20   19   28 1   
    21   20   21 1   
    22   20   23 1   
    23   20   29 1   
    24   21   22 2   
    25   21   41 1   
    26   23   24 1   
    27   23   30 1   
    28   23   31 1   
    29   24   25 1   
    30   24   32 1   
    31   24   33 1   
    32   25   26 1   
    33   25   34 1   
    34   25   35 1   
    35   26   27 1   
    36   26   36 1   
    37   26   37 1   
    38   27   38 1   
    39   27   39 1   
    40   27   40 1   
    41   41   42 1   
    42   41   49 1   
    43   42   43 1   
    44   42   45 1   
    45   42   50 1   
    46   43   44 2   
    47   43   53 1   
    48   45   46 1   
    49   45   51 1   
    50   45   52 1   
    51   46   47 1   
    52   46   48 1   
    53   53   54 1   
    54   53   57 1   
    55   54   55 1   
    56   54   58 1   
    57   54   59 1   
    58   55   56 2   
    59   55   60 1   
    60   60   61 1   
    61   60   68 1   
    62   61   62 1   
    63   61   64 1   
    64   61   69 1   
    65   62   63 2   
    66   62   74 1   
    67   64   65 1   
    68   64   70 1   
    69   64   71 1   
    70   65   66 1   
    71   65   67 2   
    72   66   72 1   
    73   66   73 1   
    74   74   75 1   
    75   74   78 1   
    76   75   76 1   
    77   75   79 1   
    78   75   80 1   
    79   76   77 2   
    80   76   81 1   
    81   81   82 1   
    82   81   93 1   
    83   82   83 1   
    84   82   85 1   
    85   82   94 1   
    86   83   84 2   
    87   83  102 1   
    88   85   86 1   
    89   85   95 1   
    90   85   96 1   
    91   86   87 ar  
    92   86   88 ar  
    93   87   89 ar  
    94   87   97 1   
    95   88   90 ar  
    96   88   98 1   
    97   89   91 ar  
    98   89   99 1   
    99   90   91 ar  
   100   90  100 1   
   101   91   92 1   
   102   92  101 1   
   103  102  103 1   
   104  102  110 1   
   105  103  104 1   
   106  103  106 1   
   107  103  111 1   
   108  104  105 2   
   109  104  121 1   
   110  106  107 1   
   111  106  108 1   
   112  106  112 1   
   113  107  109 1   
   114  107  113 1   
   115  107  114 1   
   116  108  115 1   
   117  108  116 1   
   118  108  117 1   
   119  109  118 1   
   120  109  119 1   
   121  109  120 1   
   122  121  122 1   
   123  121  127 1   
   124  122  123 1   
   125  122  125 1   
   126  122  128 1   
   127  123  124 2   
   128  123  132 1   
   129  125  126 1   
   130  125  129 1   
   131  125  130 1   
   132  126  131 1   
   133  132  133 1   
   134  132  137 1   
   135  133  134 1   
   136  133  136 1   
   137  133  138 1   
   138  134  135 2   
   139  134  142 1   
   140  136  139 1   
   141  136  140 1   
   142  136  141 1   
   143  142  143 1   
   144  142  147 1   
   145  143  144 1   
   146  143  146 1   
   147  143  148 1   
   148  144  145 2   
   149  144  152 1   
   150  146  149 1   
   151  146  150 1   
   152  146  151 1   
   153  152  153 1   
   154  152  161 1   
   155  153  154 1   
   156  153  156 1   
   157  153  162 1   
   158  154  155 2   
   159  154  167 1   
   160  156  157 1   
   161  156  163 1   
   162  156  164 1   
   163  157  158 1   
   164  157  165 1   
   165  157  166 1   
   166  158  159 1   
   167  158  160 1   
   168  167  168 1   
   169  167  172 1   
   170  168  169 1   
   171  168  170 1   
   172  168  171 1   
   173  174  176 1   
   174  174  178 1   
   175  175  177 1   
   176  175  179 1   
   177  180  181 1   
   178  180  182 1   
   179  183  184 1   
   180  183  185 1   
@<TRIPOS>SUBSTRUCTURE
     1 MOL         1 TEMP              0 ****  ****    0 ROOT
