@<TRIPOS>MOLECULE
MOL
  181   177     1     0     0
SMALL
resp


@<TRIPOS>ATOM
      1 C1          1.9320   -3.7050    3.6890 c3        1 MOL     -0.327926
      2 C2          3.5040   -3.6410    3.4600 c         1 MOL      0.561014
      3 O1          4.1730   -2.6150    3.6690 o         1 MOL     -0.553391
      4 H1          1.6520   -4.7110    4.0020 hc        1 MOL      0.093709
      5 H2          1.6480   -2.9930    4.4630 hc        1 MOL      0.093709
      6 H3          1.4180   -3.4570    2.7600 hc        1 MOL      0.093709
      7 N1          4.1830   -4.7530    3.0670 n         1 MOL     -0.456260
      8 C3          5.6410   -4.8070    2.7700 c3        1 MOL      0.048097
      9 C4          5.7810   -4.3030    1.3740 c         1 MOL      0.636147
     10 O2          5.4990   -5.1530    0.5460 o         1 MOL     -0.606621
     11 C5          6.0910   -6.2920    2.9080 c3        1 MOL     -0.105155
     12 C6          7.4790   -6.6790    2.6740 c         1 MOL      0.786037
     13 O3          8.2210   -5.7250    2.3280 o         1 MOL     -0.762963
     14 O4          7.8240   -7.8540    2.7840 o         1 MOL     -0.762963
     15 H4          3.6770   -5.5580    2.7320 hn        1 MOL      0.219560
     16 H5          6.2380   -4.2330    3.4780 h1        1 MOL      0.055408
     17 H6          5.4850   -6.9090    2.2500 hc        1 MOL     -0.001992
     18 H7          5.8600   -6.6590    3.9070 hc        1 MOL     -0.001992
     19 N2          6.1810   -3.0400    1.1480 n         1 MOL     -0.456840
     20 C7          6.5240   -2.5960   -0.2090 c3        1 MOL      0.310442
     21 C8          5.7110   -1.3100   -0.5930 c         1 MOL      0.612558
     22 O5          5.4160   -0.4140    0.1800 o         1 MOL     -0.566279
     23 C9          8.0250   -2.3840   -0.4780 c3        1 MOL     -0.446290
     24 H8          6.5900   -2.5250    1.9130 hn        1 MOL      0.277115
     25 H9          6.2000   -3.3240   -0.9630 h1        1 MOL      0.033286
     26 H10         8.2200   -1.9970   -1.4820 hc        1 MOL      0.106795
     27 H11         8.5370   -1.8000    0.2910 hc        1 MOL      0.106795
     28 H12         8.4620   -3.3770   -0.4290 hc        1 MOL      0.106795
     29 N3          5.2980   -1.3010   -1.8630 n         1 MOL     -0.699754
     30 C10         4.4090   -0.3110   -2.5630 c3        1 MOL      0.374400
     31 C11         5.0370    0.9480   -3.2740 c         1 MOL      0.374797
     32 O6          4.2550    1.5820   -3.9740 o         1 MOL     -0.496125
     33 C12         3.4360   -1.0630   -3.5170 c3        1 MOL     -0.315847
     34 C13         2.7240   -2.1400   -2.7470 c         1 MOL      0.635034
     35 O7          2.5930   -3.2740   -3.2760 o         1 MOL     -0.668881
     36 O8          2.3250   -1.9820   -1.5670 o         1 MOL     -0.668881
     37 H13         5.4930   -2.1390   -2.3930 hn        1 MOL      0.318658
     38 H14         3.8170    0.2130   -1.8180 h1        1 MOL      0.095780
     39 H15         3.9840   -1.4700   -4.3660 hc        1 MOL      0.059388
     40 H16         2.6120   -0.4080   -3.7970 hc        1 MOL      0.059388
     41 N4          6.3410    1.3200   -3.0840 n         1 MOL     -0.409134
     42 C14         6.9480    2.5080   -3.6600 c3        1 MOL     -0.033770
     43 C15         6.5160    3.8520   -3.0890 c         1 MOL      0.499197
     44 O9          7.3040    4.7530   -3.2390 o         1 MOL     -0.529484
     45 H17         6.9310    0.6980   -2.5450 hn        1 MOL      0.277792
     46 H18         6.6780    2.5330   -4.7210 h1        1 MOL      0.077366
     47 H19         8.0370    2.4300   -3.6140 h1        1 MOL      0.077366
     48 N5          5.2470    3.9560   -2.6300 n         1 MOL     -0.386197
     49 C16         4.6510    5.2390   -2.0850 c3        1 MOL      0.103877
     50 C17         3.9310    4.9030   -0.8060 c         1 MOL      0.571339
     51 O10         3.2170    3.9250   -0.8280 o         1 MOL     -0.464298
     52 C18         3.6890    5.9620   -3.0400 c3        1 MOL     -0.305690
     53 C19         4.4110    6.7700   -4.1270 c         1 MOL      0.641291
     54 N6          4.5150    6.2530   -5.3230 n         1 MOL     -0.708076
     55 O11         4.9130    7.8710   -3.9190 o         1 MOL     -0.564558
     56 H20         4.6490    3.1550   -2.5280 hn        1 MOL      0.226816
     57 H21         5.4370    5.9590   -1.8780 h1        1 MOL      0.059160
     58 H22         2.9960    6.6110   -2.4930 hc        1 MOL      0.098939
     59 H23         3.0290    5.2990   -3.6040 hc        1 MOL      0.098939
     60 H24         4.1150    5.3410   -5.4700 hn        1 MOL      0.342479
     61 H25         4.9610    6.7400   -6.0880 hn        1 MOL      0.342479
     62 N7          4.1160    5.6230    0.3000 n         1 MOL     -0.550172
     63 C20         3.3820    5.4990    1.5740 c3        1 MOL      0.024697
     64 C21         2.0900    6.3390    1.5290 c         1 MOL      0.527003
     65 O12         1.7340    7.0780    0.5660 o         1 MOL     -0.484936
     66 H26         4.7490    6.4010    0.2540 hn        1 MOL      0.309873
     67 H27         3.9870    5.8960    2.3920 h1        1 MOL      0.082834
     68 H28         3.1550    4.4540    1.7950 h1        1 MOL      0.082834
     69 N8          1.3930    6.2220    2.6520 n         1 MOL     -0.460345
     70 C22         0.0150    6.7830    2.9030 c3        1 MOL     -0.174547
     71 C23        -1.1090    5.7270    2.8340 c         1 MOL      0.673869
     72 O13        -2.2390    6.1110    2.5920 o         1 MOL     -0.612732
     73 C24        -0.0560    7.5080    4.2820 c3        1 MOL      0.413505
     74 C25         0.0060    6.5740    5.4570 c3        1 MOL     -0.243107
     75 O14         0.9950    8.4730    4.4750 oh        1 MOL     -0.641150
     76 H29         1.7730    5.5850    3.3370 hn        1 MOL      0.252425
     77 H30        -0.1760    7.5120    2.1070 h1        1 MOL      0.129796
     78 H31        -0.9860    8.0870    4.3020 h1        1 MOL      0.028837
     79 H32         1.8430    8.1630    4.1330 ho        1 MOL      0.373516
     80 H33         0.0850    7.0460    6.4320 hc        1 MOL      0.058438
     81 H34        -0.9620    6.0910    5.4650 hc        1 MOL      0.058438
     82 H35         0.8000    5.8400    5.3190 hc        1 MOL      0.058438
     83 N9         -0.8130    4.4690    2.9190 n         1 MOL     -0.351276
     84 C26        -1.8250    3.3380    2.9090 c3        1 MOL     -0.026223
     85 C27        -1.3410    2.2680    2.0040 c         1 MOL      0.486252
     86 O15        -0.1520    2.0960    1.7610 o         1 MOL     -0.480206
     87 C28        -2.4660    2.9120    4.2770 c3        1 MOL      0.108365
     88 C29        -1.4690    2.6740    5.4470 c3        1 MOL      0.088562
     89 C30        -3.4670    3.9800    4.7360 c3        1 MOL     -0.267419
     90 C31        -0.2360    1.7770    5.2270 c3        1 MOL     -0.299294
     91 H36         0.1570    4.2130    3.0420 hn        1 MOL      0.222266
     92 H37        -2.6410    3.7230    2.2990 h1        1 MOL      0.100275
     93 H38        -2.9590    1.9530    4.1420 hc        1 MOL      0.005568
     94 H39        -2.0120    2.3390    6.3410 hc        1 MOL     -0.019907
     95 H40        -1.1140    3.6610    5.7630 hc        1 MOL     -0.019907
     96 H41        -3.0180    4.9550    4.9110 hc        1 MOL      0.065890
     97 H42        -4.1470    4.0860    3.8930 hc        1 MOL      0.065890
     98 H43        -4.0230    3.6950    5.6250 hc        1 MOL      0.065890
     99 H44        -0.5010    0.7230    5.1670 hc        1 MOL      0.087950
    100 H45         0.3240    2.0090    4.3230 hc        1 MOL      0.087950
    101 H46         0.4530    1.9020    6.0650 hc        1 MOL      0.087950
    102 N10        -2.2960    1.4540    1.4660 n         1 MOL     -0.500072
    103 C32        -2.0040    0.4520    0.4420 c3        1 MOL      0.096165
    104 C33        -3.2000    0.2150   -0.4750 c         1 MOL      0.462132
    105 O16        -3.5380   -0.8730   -0.8520 o         1 MOL     -0.439784
    106 C34        -1.6300   -0.9020    1.1340 c3        1 MOL      0.035949
    107 C35        -0.8710   -1.8990    0.2890 c         1 MOL      0.705211
    108 O17        -0.5160   -3.0190    0.7780 o         1 MOL     -0.761900
    109 O18        -0.5310   -1.6290   -0.8780 o         1 MOL     -0.761900
    110 H47        -3.2490    1.6790    1.6910 hn        1 MOL      0.272569
    111 H48        -1.1010    0.8590   -0.0370 h1        1 MOL      0.102081
    112 H49        -2.4990   -1.4420    1.5340 hc        1 MOL      0.005470
    113 H50        -0.9800   -0.6840    1.9790 hc        1 MOL      0.005470
    114 N11        -3.9350    1.2280   -0.7810 n         1 MOL     -0.470309
    115 C36        -5.2680    1.1660   -1.4870 c3        1 MOL      0.262657
    116 C37        -6.2570    0.2320   -0.7490 c         1 MOL      0.242448
    117 O19        -6.5020    0.4880    0.4320 o         1 MOL     -0.525450
    118 C38        -5.8780    2.5670   -1.6700 c3        1 MOL     -0.303672
    119 C39        -7.2180    2.4870   -2.4300 ca        1 MOL      0.105947
    120 C40        -7.2160    2.6200   -3.8330 ca        1 MOL     -0.177181
    121 C41        -8.4000    2.3880   -1.6810 ca        1 MOL     -0.177181
    122 C42        -8.5020    2.6710   -4.4460 ca        1 MOL     -0.114033
    123 C43        -9.6270    2.2130   -2.3140 ca        1 MOL     -0.114033
    124 C44        -9.6660    2.3670   -3.7140 ca        1 MOL     -0.092195
    125 H51        -3.5520    2.1330   -0.5440 hn        1 MOL      0.258857
    126 H52        -5.1330    0.6890   -2.4620 h1        1 MOL      0.003999
    127 H53        -5.1730    3.1770   -2.2440 hc        1 MOL      0.116768
    128 H54        -5.9560    3.0610   -0.7050 hc        1 MOL      0.116768
    129 H55        -6.2720    2.6150   -4.3540 ha        1 MOL      0.138352
    130 H56        -8.4010    2.3010   -0.6020 ha        1 MOL      0.138352
    131 H57        -8.4760    2.8100   -5.5140 ha        1 MOL      0.110579
    132 H58       -10.5210    2.1460   -1.7180 ha        1 MOL      0.110579
    133 H59       -10.5960    2.3990   -4.2660 ha        1 MOL      0.087158
    134 N12        -6.8950   -0.7730   -1.3690 n         1 MOL      0.079938
    135 C45        -7.8940   -1.5100   -0.6060 c3        1 MOL      0.099409
    136 C46        -7.2540   -2.3970    0.4960 c         1 MOL      0.238265
    137 O20        -7.9160   -2.8430    1.4440 o         1 MOL     -0.523161
    138 C47        -8.5980   -2.3600   -1.7070 c3        1 MOL     -0.102771
    139 C48        -8.1670   -1.8590   -3.0060 c3        1 MOL      0.011348
    140 C49        -6.8250   -1.3060   -2.7530 c3        1 MOL     -0.040411
    141 H60        -8.6860   -0.8710   -0.2100 h1        1 MOL      0.060544
    142 H61        -8.3040   -3.4060   -1.6960 hc        1 MOL      0.045013
    143 H62        -9.6760   -2.2140   -1.6930 hc        1 MOL      0.045013
    144 H63        -8.0930   -2.6360   -3.7650 hc        1 MOL      0.005584
    145 H64        -8.8150   -1.0460   -3.3540 hc        1 MOL      0.005584
    146 H65        -6.0730   -2.1020   -2.7610 h1        1 MOL      0.057524
    147 H66        -6.6120   -0.5620   -3.5210 h1        1 MOL      0.057524
    148 N13        -5.9400   -2.7680    0.2920 n         1 MOL      0.126802
    149 C50        -5.2030   -3.8510    0.9530 c3        1 MOL     -0.363678
    150 C51        -4.7770   -3.5570    2.4380 c         1 MOL      0.460343
    151 O21        -4.1090   -4.3660    3.0930 o         1 MOL     -0.532834
    152 C52        -3.9280   -4.2390    0.2020 c3        1 MOL      0.125921
    153 C53        -4.1500   -4.7380   -1.1960 c3        1 MOL     -0.297262
    154 C54        -2.9690   -5.2600   -1.9730 c         1 MOL      0.742128
    155 O22        -1.9600   -4.5490   -2.0130 o         1 MOL     -0.728422
    156 O23        -3.0670   -6.4160   -2.5110 o         1 MOL     -0.728422
    157 H67        -5.4670   -2.4430   -0.5410 hn        1 MOL     -0.015454
    158 H68        -5.8080   -4.7540    0.9770 h1        1 MOL      0.144179
    159 H69        -3.4500   -5.0020    0.8040 hc        1 MOL      0.047590
    160 H70        -3.2950   -3.3550    0.1260 hc        1 MOL      0.047590
    161 H71        -4.5410   -3.9280   -1.8030 hc        1 MOL      0.057367
    162 H72        -4.9750   -5.4410   -1.2200 hc        1 MOL      0.057367
    163 N14        -5.2210   -2.4460    3.0000 n         1 MOL     -0.125872
    164 C55        -5.0860   -2.1120    4.4340 c3        1 MOL     -0.351863
    165 H73        -5.2110   -1.0380    4.5690 h1        1 MOL      0.128560
    166 H74        -5.8490   -2.6410    5.0040 h1        1 MOL      0.128560
    167 H75        -4.0980   -2.4090    4.7860 h1        1 MOL      0.128560
    168 H76        -5.6550   -1.8240    2.3390 hn        1 MOL      0.214255
    169 Ca1         0.5950   -3.9260   -1.3620 Ca        1 MOL      1.730394
    170 O24        -0.1630   -5.9070    0.1400 oh        1 MOL     -0.831906
    171 H77        -0.4810   -5.9930    1.0400 ho        1 MOL      0.407528
    172 H78        -0.3810   -6.7400   -0.2750 ho        1 MOL      0.407528
    173 O25        -0.1770   -3.3300   -4.1560 oh        1 MOL     -0.831906
    174 H79         0.5660   -2.9700   -4.6350 ho        1 MOL      0.407528
    175 H80        -0.7960   -2.6010   -4.1000 ho        1 MOL      0.407528
    176 O26         1.3680   -6.0960   -2.7080 oh        1 MOL     -0.831906
    177 H81         1.5240   -6.2320   -3.6340 ho        1 MOL      0.407528
    178 H82         1.4270   -6.9710   -2.3200 ho        1 MOL      0.407528
    179 O27         2.7310   -4.8130    0.0350 oh        1 MOL     -0.831906
    180 H83         2.4700   -5.5980    0.5060 ho        1 MOL      0.407528
    181 H84         3.6880   -4.7800    0.1270 ho        1 MOL      0.407528
@<TRIPOS>BOND
     1    1    2 1   
     2    1    4 1   
     3    1    5 1   
     4    1    6 1   
     5    2    3 2   
     6    2    7 1   
     7    7    8 1   
     8    7   15 1   
     9    8    9 1   
    10    8   11 1   
    11    8   16 1   
    12    9   10 2   
    13    9   19 1   
    14   11   12 1   
    15   11   17 1   
    16   11   18 1   
    17   12   13 1   
    18   12   14 1   
    19   19   20 1   
    20   19   24 1   
    21   20   21 1   
    22   20   23 1   
    23   20   25 1   
    24   21   22 2   
    25   21   29 1   
    26   23   26 1   
    27   23   27 1   
    28   23   28 1   
    29   29   30 1   
    30   29   37 1   
    31   30   31 1   
    32   30   33 1   
    33   30   38 1   
    34   31   32 2   
    35   31   41 1   
    36   33   34 1   
    37   33   39 1   
    38   33   40 1   
    39   34   35 1   
    40   34   36 1   
    41   41   42 1   
    42   41   45 1   
    43   42   43 1   
    44   42   46 1   
    45   42   47 1   
    46   43   44 2   
    47   43   48 1   
    48   48   49 1   
    49   48   56 1   
    50   49   50 1   
    51   49   52 1   
    52   49   57 1   
    53   50   51 2   
    54   50   62 1   
    55   52   53 1   
    56   52   58 1   
    57   52   59 1   
    58   53   54 1   
    59   53   55 2   
    60   54   60 1   
    61   54   61 1   
    62   62   63 1   
    63   62   66 1   
    64   63   64 1   
    65   63   67 1   
    66   63   68 1   
    67   64   65 2   
    68   64   69 1   
    69   69   70 1   
    70   69   76 1   
    71   70   71 1   
    72   70   73 1   
    73   70   77 1   
    74   71   72 2   
    75   71   83 1   
    76   73   74 1   
    77   73   75 1   
    78   73   78 1   
    79   74   80 1   
    80   74   81 1   
    81   74   82 1   
    82   75   79 1   
    83   83   84 1   
    84   83   91 1   
    85   84   85 1   
    86   84   87 1   
    87   84   92 1   
    88   85   86 2   
    89   85  102 1   
    90   87   88 1   
    91   87   89 1   
    92   87   93 1   
    93   88   90 1   
    94   88   94 1   
    95   88   95 1   
    96   89   96 1   
    97   89   97 1   
    98   89   98 1   
    99   90   99 1   
   100   90  100 1   
   101   90  101 1   
   102  102  103 1   
   103  102  110 1   
   104  103  104 1   
   105  103  106 1   
   106  103  111 1   
   107  104  105 2   
   108  104  114 1   
   109  106  107 1   
   110  106  112 1   
   111  106  113 1   
   112  107  108 1   
   113  107  109 1   
   114  114  115 1   
   115  114  125 1   
   116  115  116 1   
   117  115  118 1   
   118  115  126 1   
   119  116  117 2   
   120  116  134 1   
   121  118  119 1   
   122  118  127 1   
   123  118  128 1   
   124  119  120 ar  
   125  119  121 ar  
   126  120  122 ar  
   127  120  129 1   
   128  121  123 ar  
   129  121  130 1   
   130  122  124 ar  
   131  122  131 1   
   132  123  124 ar  
   133  123  132 1   
   134  124  133 1   
   135  134  135 1   
   136  134  140 1   
   137  135  136 1   
   138  135  138 1   
   139  135  141 1   
   140  136  137 2   
   141  136  148 1   
   142  138  139 1   
   143  138  142 1   
   144  138  143 1   
   145  139  140 1   
   146  139  144 1   
   147  139  145 1   
   148  140  146 1   
   149  140  147 1   
   150  148  149 1   
   151  148  157 1   
   152  149  150 1   
   153  149  152 1   
   154  149  158 1   
   155  150  151 2   
   156  150  163 1   
   157  152  153 1   
   158  152  159 1   
   159  152  160 1   
   160  153  154 1   
   161  153  161 1   
   162  153  162 1   
   163  154  155 1   
   164  154  156 1   
   165  163  164 1   
   166  163  168 1   
   167  164  165 1   
   168  164  166 1   
   169  164  167 1   
   170  170  171 1   
   171  170  172 1   
   172  173  174 1   
   173  173  175 1   
   174  176  177 1   
   175  176  178 1   
   176  179  180 1   
   177  179  181 1   
@<TRIPOS>SUBSTRUCTURE
     1 MOL         1 TEMP              0 ****  ****    0 ROOT
