@<TRIPOS>MOLECULE
MOL
  184   179     1     0     0
SMALL
resp


@<TRIPOS>ATOM
      1 C1         11.8950   -6.1190   -3.1860 c3        1 MOL     -0.397881
      2 C2         10.8530   -5.0480   -2.9030 c         1 MOL      0.678972
      3 O1         10.0210   -4.7880   -3.7510 o         1 MOL     -0.568086
      4 H1         12.2880   -5.9840   -4.1940 hc        1 MOL      0.099280
      5 H2         12.7080   -6.0350   -2.4650 hc        1 MOL      0.099280
      6 H3         11.4360   -7.1040   -3.1040 hc        1 MOL      0.099280
      7 N1         10.8380   -4.2720   -1.8080 n         1 MOL     -0.576180
      8 C3         11.6620   -4.3870   -0.6060 c3        1 MOL      0.364997
      9 C4         12.6680   -3.1670   -0.5160 c         1 MOL      0.309628
     10 O2         13.6920   -3.2080    0.1790 o         1 MOL     -0.552114
     11 C5         10.7720   -4.5400    0.6720 c3        1 MOL     -0.127021
     12 C6          9.7720   -3.3780    1.0450 c         1 MOL      0.442415
     13 O3         10.1860   -2.2000    0.9300 o         1 MOL     -0.582321
     14 O4          8.7050   -3.5940    1.6780 o         1 MOL     -0.582321
     15 H4         10.0230   -3.7010   -1.6290 hn        1 MOL      0.378665
     16 H5         12.2580   -5.2920   -0.6260 h1        1 MOL     -0.033477
     17 H6         11.4020   -4.7400    1.5380 hc        1 MOL      0.023168
     18 H7         10.0670   -5.3460    0.5090 hc        1 MOL      0.023168
     19 N2         12.2700   -1.9980   -1.0820 n         1 MOL     -0.339329
     20 C7         12.8840   -0.6790   -0.9910 c3        1 MOL      0.580541
     21 C8         11.8470    0.4370   -1.3160 c         1 MOL      0.256215
     22 O5         12.1450    1.3000   -2.1180 o         1 MOL     -0.509770
     23 C9         14.1130   -0.6590   -1.9080 c3        1 MOL     -0.306035
     24 H8         11.4500   -2.1230   -1.6710 hn        1 MOL      0.163343
     25 H9         13.2950   -0.4270   -0.0100 h1        1 MOL     -0.039024
     26 H10        14.8620   -1.3610   -1.5370 hc        1 MOL      0.053757
     27 H11        13.9450   -0.6900   -2.9840 hc        1 MOL      0.053757
     28 H12        14.5870    0.2820   -1.6280 hc        1 MOL      0.053757
     29 N3         10.5640    0.3200   -0.8610 n         1 MOL     -0.226752
     30 C10         9.3650    1.0530   -1.4160 c3        1 MOL      0.061774
     31 C11         8.4750    1.6360   -0.3510 c         1 MOL      0.628156
     32 O6          8.5370    1.1240    0.7650 o         1 MOL     -0.638784
     33 C12         8.6180   -0.0250   -2.2500 c3        1 MOL     -0.342597
     34 C13         8.2010   -1.2170   -1.4370 c         1 MOL      0.815632
     35 O7          7.5220   -1.1910   -0.3930 o         1 MOL     -0.730550
     36 O8          8.5260   -2.3420   -1.9500 o         1 MOL     -0.730550
     37 H13        10.4170   -0.3820   -0.1490 hn        1 MOL      0.102556
     38 H14         9.7640    1.7990   -2.0990 h1        1 MOL      0.052945
     39 H15         9.3010   -0.3080   -3.0490 hc        1 MOL      0.115211
     40 H16         7.7080    0.3980   -2.6690 hc        1 MOL      0.115211
     41 N4          7.6920    2.6790   -0.6520 n         1 MOL     -0.680242
     42 C14         6.9110    3.4110    0.3880 c3        1 MOL      0.335211
     43 C15         5.4970    2.9480    0.5120 c         1 MOL      0.450464
     44 O9          4.9500    2.1240   -0.2470 o         1 MOL     -0.463917
     45 H17         7.6510    3.1040   -1.5620 hn        1 MOL      0.354756
     46 H18         6.9870    4.4960    0.2780 h1        1 MOL     -0.005573
     47 H19         7.3780    3.2520    1.3630 h1        1 MOL     -0.005573
     48 N5          4.9000    3.3700    1.5770 n         1 MOL     -0.478853
     49 C16         3.4340    3.3040    1.7960 c3        1 MOL     -0.073350
     50 C17         2.6420    4.2200    0.8790 c         1 MOL      0.645307
     51 O10         3.1710    5.1800    0.2720 o         1 MOL     -0.527458
     52 C18         3.1720    3.5270    3.3120 c3        1 MOL     -0.204057
     53 C19         3.8730    2.4280    4.1500 c         1 MOL      0.663825
     54 N6          4.7430    2.8100    5.0310 n         1 MOL     -0.758202
     55 O11         3.5950    1.2220    4.0460 o         1 MOL     -0.518970
     56 H20         5.4650    3.8890    2.2280 hn        1 MOL      0.251166
     57 H21         3.1580    2.2870    1.4950 h1        1 MOL      0.111728
     58 H22         2.1090    3.6270    3.5160 hc        1 MOL      0.095890
     59 H23         3.5710    4.5090    3.5320 hc        1 MOL      0.095890
     60 H24         5.0330    3.7610    5.2090 hn        1 MOL      0.332709
     61 H25         5.0810    2.0580    5.6090 hn        1 MOL      0.332709
     62 N7          1.3140    4.0320    0.8850 n         1 MOL     -0.562673
     63 C20         0.3510    4.9580    0.3500 c3        1 MOL      0.196171
     64 C21         0.0950    5.0310   -1.1490 c         1 MOL      0.439607
     65 O12         0.9160    4.5180   -1.9670 o         1 MOL     -0.499891
     66 H26         0.9700    3.2260    1.3870 hn        1 MOL      0.345478
     67 H27         0.6510    5.9480    0.6860 h1        1 MOL      0.043009
     68 H28        -0.5780    4.7850    0.8970 h1        1 MOL      0.043009
     69 N8         -1.0440    5.5110   -1.6760 n         1 MOL     -0.391582
     70 C22        -2.1990    6.1340   -0.9060 c3        1 MOL     -0.131180
     71 C23        -3.1970    5.0060   -0.7090 c         1 MOL      0.587337
     72 O13        -3.8420    4.9690    0.3500 o         1 MOL     -0.539469
     73 C24        -2.8680    7.2690   -1.7580 c3        1 MOL      0.401240
     74 C25        -1.9800    8.4770   -2.0560 c3        1 MOL     -0.377891
     75 O14        -3.3360    6.8380   -3.0390 oh        1 MOL     -0.596641
     76 H29        -0.8840    5.8240   -2.6150 hn        1 MOL      0.266386
     77 H30        -1.9610    6.4910    0.1010 h1        1 MOL      0.052887
     78 H31        -3.7670    7.6050   -1.2430 h1        1 MOL      0.048948
     79 H32        -2.6070    6.9770   -3.6520 ho        1 MOL      0.372321
     80 H33        -2.5070    9.2570   -2.6020 hc        1 MOL      0.089905
     81 H34        -1.8480    8.9710   -1.1040 hc        1 MOL      0.089905
     82 H35        -0.9730    8.3120   -2.4270 hc        1 MOL      0.089905
     83 N9         -3.3730    4.0110   -1.6510 n         1 MOL     -0.409421
     84 C26        -4.4230    2.9540   -1.5970 c3        1 MOL      0.078225
     85 C27        -4.0740    1.7880   -0.5860 c         1 MOL      0.504137
     86 O15        -2.9290    1.2970   -0.6380 o         1 MOL     -0.603543
     87 C28        -4.4930    2.3160   -3.0490 c3        1 MOL      0.033461
     88 C29        -4.7530    3.3060   -4.2370 c3        1 MOL     -0.007873
     89 C30        -5.5230    1.1520   -3.1010 c3        1 MOL     -0.359041
     90 C31        -6.0390    4.1660   -4.0810 c3        1 MOL     -0.133903
     91 H36        -2.7500    3.9490   -2.4390 hn        1 MOL      0.237043
     92 H37        -5.3810    3.4430   -1.4320 h1        1 MOL      0.080929
     93 H38        -3.5580    1.8210   -3.2970 hc        1 MOL      0.016805
     94 H39        -4.9310    2.6490   -5.0770 hc        1 MOL      0.004347
     95 H40        -3.8570    3.8780   -4.4800 hc        1 MOL      0.004347
     96 H41        -5.3090    0.3840   -2.3480 hc        1 MOL      0.143900
     97 H42        -6.5690    1.4270   -2.9600 hc        1 MOL      0.143900
     98 H43        -5.4440    0.7640   -4.1140 hc        1 MOL      0.143900
     99 H44        -6.9120    3.5370   -3.8930 hc        1 MOL      0.033007
    100 H45        -5.9960    4.8680   -3.2540 hc        1 MOL      0.033007
    101 H46        -6.2110    4.7490   -4.9880 hc        1 MOL      0.033007
    102 N10        -4.9500    1.2700    0.2280 n         1 MOL     -0.411491
    103 C32        -6.4200    1.5340    0.2050 c3        1 MOL      0.113276
    104 C33        -7.1840    0.3650    0.6890 c         1 MOL      0.674589
    105 O16        -6.5480   -0.5360    1.1190 o         1 MOL     -0.554264
    106 C34        -6.7610    2.7220    1.1750 c3        1 MOL     -0.001605
    107 C35        -6.7650    2.5470    2.6700 c         1 MOL      0.629570
    108 O17        -7.0800    3.5860    3.2570 o         1 MOL     -0.694112
    109 O18        -6.5550    1.4190    3.2370 o         1 MOL     -0.694112
    110 H47        -4.6730    0.6180    0.9550 hn        1 MOL      0.302435
    111 H48        -6.7250    1.6550   -0.8310 h1        1 MOL     -0.029688
    112 H49        -7.7450    3.0230    0.8320 hc        1 MOL     -0.034416
    113 H50        -6.1350    3.5550    0.8520 hc        1 MOL     -0.034416
    114 N11        -8.4970    0.3890    0.3930 n         1 MOL     -0.790231
    115 C36        -9.4450   -0.5430    1.0240 c3        1 MOL      0.526957
    116 C37       -10.5390   -1.0380    0.0760 c         1 MOL      0.065221
    117 O19       -11.0000   -0.1840   -0.6570 o         1 MOL     -0.472284
    118 C38       -10.0130    0.0480    2.2710 c3        1 MOL      0.051374
    119 C39       -10.7250   -0.9530    3.2030 ca        1 MOL     -0.030330
    120 C40       -12.1160   -1.0820    3.2270 ca        1 MOL     -0.073542
    121 C41        -9.9390   -1.8570    3.9260 ca        1 MOL     -0.073542
    122 C42       -12.7040   -2.1730    4.0200 ca        1 MOL     -0.218723
    123 C43       -10.5050   -2.9040    4.6530 ca        1 MOL     -0.218723
    124 C44       -11.8940   -3.1330    4.6170 ca        1 MOL     -0.018196
    125 H51        -8.8910    1.1780   -0.1010 hn        1 MOL      0.373047
    126 H52        -8.8800   -1.4380    1.2980 h1        1 MOL     -0.021093
    127 H53       -10.7540    0.8420    2.1870 hc        1 MOL     -0.002422
    128 H54        -9.1560    0.4910    2.7900 hc        1 MOL     -0.002422
    129 H55       -12.7590   -0.4370    2.6450 ha        1 MOL      0.108888
    130 H56        -8.8650   -1.8390    3.7890 ha        1 MOL      0.108888
    131 H57       -13.7710   -2.3480    3.9220 ha        1 MOL      0.125007
    132 H58        -9.8880   -3.4270    5.3700 ha        1 MOL      0.125007
    133 H59       -12.4630   -3.9170    5.0920 ha        1 MOL      0.063456
    134 N12       -10.9700   -2.2880    0.0670 n         1 MOL      0.190436
    135 C45       -10.5000   -3.4280    0.8550 c3        1 MOL     -0.299847
    136 C46        -9.2370   -3.9810    0.2400 c         1 MOL      0.645296
    137 O20        -8.4550   -4.5320    0.9930 o         1 MOL     -0.571424
    138 C47       -11.6530   -4.4320    0.8100 c3        1 MOL     -0.092955
    139 C48       -12.4020   -4.2050   -0.4190 c3        1 MOL     -0.103983
    140 C49       -12.1320   -2.7070   -0.7290 c3        1 MOL     -0.079591
    141 H60       -10.1680   -3.1220    1.8450 h1        1 MOL      0.167157
    142 H61       -11.2520   -5.4340    0.7480 hc        1 MOL      0.057453
    143 H62       -12.3210   -4.1510    1.6250 hc        1 MOL      0.057453
    144 H63       -11.9470   -4.9110   -1.1240 hc        1 MOL      0.054467
    145 H64       -13.4530   -4.4270   -0.2560 hc        1 MOL      0.054467
    146 H65       -11.7400   -2.6870   -1.7440 h1        1 MOL      0.047166
    147 H66       -12.8760   -1.9100   -0.6780 h1        1 MOL      0.047166
    148 N13        -9.0020   -3.8050   -1.0730 n         1 MOL     -0.535185
    149 C50        -7.7650   -4.1510   -1.8430 c3        1 MOL      0.249771
    150 C51        -7.5660   -5.6910   -2.2170 c         1 MOL      0.375330
    151 O21        -8.1490   -6.1930   -3.2190 o         1 MOL     -0.571775
    152 C52        -7.8050   -3.3680   -3.1110 c3        1 MOL     -0.112222
    153 C53        -7.9200   -1.8610   -2.8540 c3        1 MOL     -0.080338
    154 C54        -8.1210   -1.0510   -4.1870 c         1 MOL      0.651152
    155 O22        -7.5250   -1.4120   -5.2180 o         1 MOL     -0.682952
    156 O23        -8.7050    0.0740   -4.1110 o         1 MOL     -0.682952
    157 H67        -9.7130   -3.4520   -1.6950 hn        1 MOL      0.369230
    158 H68        -6.8600   -3.9400   -1.2620 h1        1 MOL      0.051598
    159 H69        -8.5900   -3.7590   -3.7500 hc        1 MOL      0.030076
    160 H70        -6.8240   -3.4900   -3.5890 hc        1 MOL      0.030076
    161 H71        -7.0320   -1.5180   -2.3150 hc        1 MOL     -0.019117
    162 H72        -8.7600   -1.6660   -2.1960 hc        1 MOL     -0.019117
    163 N14        -6.9470   -6.5350   -1.4110 n         1 MOL     -0.264585
    164 C55        -6.0680   -6.2410   -0.2980 c3        1 MOL     -0.181837
    165 H73        -6.6630   -5.9400    0.5650 h1        1 MOL      0.086799
    166 H74        -5.4900   -7.1300   -0.0460 h1        1 MOL      0.086799
    167 H75        -5.3920   -5.4320   -0.5710 h1        1 MOL      0.086799
    168 H76        -6.9100   -7.4950   -1.7150 hn        1 MOL      0.252153
    169 Ca1         7.7500   -1.2620    2.1600 Ca        1 MOL      1.826785
    170 O24         9.7260    0.2140    3.1700 oh        1 MOL     -0.876541
    171 H77        10.6510    0.0720    3.4030 ho        1 MOL      0.418546
    172 H78         9.5660    1.1300    3.4000 ho        1 MOL      0.418546
    173 O25         6.6050    0.5180    3.8290 oh        1 MOL     -0.876541
    174 H79         5.7170    0.8480    3.9740 ho        1 MOL      0.418546
    175 H80         7.1750    1.2230    4.1480 ho        1 MOL      0.418546
    176 O26         5.8390   -3.0960    2.1790 oh        1 MOL     -0.876541
    177 H81         5.8050   -4.0450    2.0460 ho        1 MOL      0.418546
    178 H82         4.9950   -2.8880    2.5730 ho        1 MOL      0.418546
    179 O27         5.4170   -0.2180    1.1220 oh        1 MOL     -0.876541
    180 H83         5.2620    0.5780    0.6160 ho        1 MOL      0.418546
    181 H84         4.7790   -0.8470    0.7790 ho        1 MOL      0.418546
    182 O28         8.1690   -2.4690    4.4720 oh        1 MOL     -0.876541
    183 H85         8.5020   -1.9910    5.2320 ho        1 MOL      0.418546
    184 H86         7.9090   -3.3240    4.8240 ho        1 MOL      0.418546
@<TRIPOS>BOND
     1    1    2 1   
     2    1    4 1   
     3    1    5 1   
     4    1    6 1   
     5    2    3 2   
     6    2    7 1   
     7    7    8 1   
     8    7   15 1   
     9    8    9 1   
    10    8   11 1   
    11    8   16 1   
    12    9   10 2   
    13    9   19 1   
    14   11   12 1   
    15   11   17 1   
    16   11   18 1   
    17   12   13 1   
    18   12   14 1   
    19   19   20 1   
    20   19   24 1   
    21   20   21 1   
    22   20   23 1   
    23   20   25 1   
    24   21   22 2   
    25   21   29 1   
    26   23   26 1   
    27   23   27 1   
    28   23   28 1   
    29   29   30 1   
    30   29   37 1   
    31   30   31 1   
    32   30   33 1   
    33   30   38 1   
    34   31   32 2   
    35   31   41 1   
    36   33   34 1   
    37   33   39 1   
    38   33   40 1   
    39   34   35 1   
    40   34   36 1   
    41   41   42 1   
    42   41   45 1   
    43   42   43 1   
    44   42   46 1   
    45   42   47 1   
    46   43   44 2   
    47   43   48 1   
    48   48   49 1   
    49   48   56 1   
    50   49   50 1   
    51   49   52 1   
    52   49   57 1   
    53   50   51 2   
    54   50   62 1   
    55   52   53 1   
    56   52   58 1   
    57   52   59 1   
    58   53   54 1   
    59   53   55 2   
    60   54   60 1   
    61   54   61 1   
    62   62   63 1   
    63   62   66 1   
    64   63   64 1   
    65   63   67 1   
    66   63   68 1   
    67   64   65 2   
    68   64   69 1   
    69   69   70 1   
    70   69   76 1   
    71   70   71 1   
    72   70   73 1   
    73   70   77 1   
    74   71   72 2   
    75   71   83 1   
    76   73   74 1   
    77   73   75 1   
    78   73   78 1   
    79   74   80 1   
    80   74   81 1   
    81   74   82 1   
    82   75   79 1   
    83   83   84 1   
    84   83   91 1   
    85   84   85 1   
    86   84   87 1   
    87   84   92 1   
    88   85   86 2   
    89   85  102 1   
    90   87   88 1   
    91   87   89 1   
    92   87   93 1   
    93   88   90 1   
    94   88   94 1   
    95   88   95 1   
    96   89   96 1   
    97   89   97 1   
    98   89   98 1   
    99   90   99 1   
   100   90  100 1   
   101   90  101 1   
   102  102  103 1   
   103  102  110 1   
   104  103  104 1   
   105  103  106 1   
   106  103  111 1   
   107  104  105 2   
   108  104  114 1   
   109  106  107 1   
   110  106  112 1   
   111  106  113 1   
   112  107  108 1   
   113  107  109 1   
   114  114  115 1   
   115  114  125 1   
   116  115  116 1   
   117  115  118 1   
   118  115  126 1   
   119  116  117 2   
   120  116  134 1   
   121  118  119 1   
   122  118  127 1   
   123  118  128 1   
   124  119  120 ar  
   125  119  121 ar  
   126  120  122 ar  
   127  120  129 1   
   128  121  123 ar  
   129  121  130 1   
   130  122  124 ar  
   131  122  131 1   
   132  123  124 ar  
   133  123  132 1   
   134  124  133 1   
   135  134  135 1   
   136  134  140 1   
   137  135  136 1   
   138  135  138 1   
   139  135  141 1   
   140  136  137 2   
   141  136  148 1   
   142  138  139 1   
   143  138  142 1   
   144  138  143 1   
   145  139  140 1   
   146  139  144 1   
   147  139  145 1   
   148  140  146 1   
   149  140  147 1   
   150  148  149 1   
   151  148  157 1   
   152  149  150 1   
   153  149  152 1   
   154  149  158 1   
   155  150  151 2   
   156  150  163 1   
   157  152  153 1   
   158  152  159 1   
   159  152  160 1   
   160  153  154 1   
   161  153  161 1   
   162  153  162 1   
   163  154  155 1   
   164  154  156 1   
   165  163  164 1   
   166  163  168 1   
   167  164  165 1   
   168  164  166 1   
   169  164  167 1   
   170  170  171 1   
   171  170  172 1   
   172  173  174 1   
   173  173  175 1   
   174  176  177 1   
   175  176  178 1   
   176  179  180 1   
   177  179  181 1   
   178  182  183 1   
   179  182  184 1   
@<TRIPOS>SUBSTRUCTURE
     1 MOL         1 TEMP              0 ****  ****    0 ROOT
