@<TRIPOS>MOLECULE
MOL
  192   187     1     0     0
SMALL
resp


@<TRIPOS>ATOM
      1 C1         -5.0340   -2.8530    5.7210 c3        1 MOL     -0.257722
      2 C2         -4.9360   -2.2800    4.2290 c         1 MOL      0.652707
      3 O1         -4.6280   -2.9700    3.2730 o         1 MOL     -0.555502
      4 H1         -5.1020   -2.0230    6.4240 hc        1 MOL      0.063311
      5 H2         -5.9210   -3.4800    5.8120 hc        1 MOL      0.063311
      6 H3         -4.1460   -3.4440    5.9420 hc        1 MOL      0.063311
      7 N1         -5.0390   -0.9620    4.1270 n         1 MOL     -0.440738
      8 C3         -4.8090   -0.3270    2.8340 c3        1 MOL      0.055509
      9 C4         -3.3520   -0.3710    2.4190 c         1 MOL      0.319860
     10 O2         -3.1020   -0.0070    1.2490 o         1 MOL     -0.390802
     11 C5         -5.4500    1.0640    2.7230 c3        1 MOL      0.061156
     12 C6         -5.3640    1.9880    3.9240 c         1 MOL      0.580126
     13 O3         -4.5700    2.9620    3.6930 o         1 MOL     -0.650529
     14 O4         -6.0090    1.7370    4.9510 o         1 MOL     -0.650529
     15 H4         -5.3690   -0.5300    4.9740 hn        1 MOL      0.274150
     16 H5         -5.3350   -0.7680    1.9910 h1        1 MOL      0.010274
     17 H6         -6.5020    0.9260    2.5060 hc        1 MOL      0.007418
     18 H7         -5.0620    1.6240    1.8840 hc        1 MOL      0.007418
     19 N2         -2.3510   -0.7280    3.2690 n         1 MOL     -0.411061
     20 C7         -0.9290   -0.7810    2.9270 c3        1 MOL      0.188342
     21 C8         -0.5110   -2.1850    2.3900 c         1 MOL      0.523180
     22 O5         -0.8820   -3.1090    3.0820 o         1 MOL     -0.554310
     23 C9         -0.1010   -0.3400    4.1130 c3        1 MOL      0.100799
     24 C10        -0.5730    0.9410    4.7650 c3        1 MOL      0.106260
     25 C11         0.5140    1.8830    5.4700 c3        1 MOL     -0.117732
     26 C12        -0.0890    3.2800    5.8000 c3        1 MOL      0.207226
     27 N3          0.8180    4.2260    6.5730 n4        1 MOL     -0.403699
     28 H8         -2.5470   -0.9540    4.2300 hn        1 MOL      0.283181
     29 H9         -0.6080   -0.1540    2.0920 h1        1 MOL      0.066509
     30 H10         0.9610   -0.1280    4.0230 hc        1 MOL     -0.025020
     31 H11        -0.2160   -1.0670    4.9240 hc        1 MOL     -0.025020
     32 H12        -1.3270    0.7810    5.5360 hc        1 MOL     -0.024940
     33 H13        -0.8540    1.5980    3.9480 hc        1 MOL     -0.024940
     34 H14         1.3760    2.0500    4.8110 hc        1 MOL      0.041034
     35 H15         0.7730    1.4500    6.4360 hc        1 MOL      0.041034
     36 H16        -0.9800    3.1800    6.4260 hx        1 MOL      0.048394
     37 H17        -0.3460    3.8060    4.8820 hx        1 MOL      0.048394
     38 H18         0.3400    5.1100    6.7170 hn        1 MOL      0.322885
     39 H19         1.0320    3.9900    7.5370 hn        1 MOL      0.322885
     40 H20         1.7250    4.3030    6.1380 hn        1 MOL      0.322885
     41 N4          0.4010   -2.4100    1.4810 n         1 MOL     -0.428807
     42 C13         1.1760   -1.5590    0.4810 c3        1 MOL     -0.026269
     43 C14         1.9950   -0.5060    1.2750 c         1 MOL      0.408403
     44 O6          1.5800    0.6170    1.3310 o         1 MOL     -0.501759
     45 C15         0.2160   -0.9720   -0.5920 c3        1 MOL     -0.251470
     46 C16        -0.6380   -2.0660   -1.2810 c         1 MOL      0.669604
     47 O7         -0.5880   -3.2890   -0.9550 o         1 MOL     -0.728995
     48 O8         -1.2990   -1.7440   -2.2940 o         1 MOL     -0.728995
     49 H21         0.4000   -3.4030    1.2510 hn        1 MOL      0.286773
     50 H22         1.8650   -2.2260   -0.0360 h1        1 MOL      0.071627
     51 H23         0.8550   -0.5500   -1.3700 hc        1 MOL      0.123033
     52 H24        -0.4380   -0.1740   -0.2420 hc        1 MOL      0.123033
     53 N5          3.2010   -0.7530    1.7220 n         1 MOL     -0.409929
     54 C17         3.9800   -2.0330    1.5450 c3        1 MOL      0.064638
     55 C18         4.9860   -2.2370    2.6910 c         1 MOL      0.466501
     56 O9          4.8920   -1.7000    3.7940 o         1 MOL     -0.533971
     57 H25         3.7130    0.0920    1.9070 hn        1 MOL      0.326751
     58 H26         4.4250   -2.0620    0.5500 h1        1 MOL      0.036323
     59 H27         3.2930   -2.8780    1.5730 h1        1 MOL      0.036323
     60 N6          6.1500   -2.9240    2.4580 n         1 MOL     -0.263756
     61 C19         6.4060   -3.7330    1.2810 c3        1 MOL     -0.159125
     62 C20         7.0590   -3.0400    0.0430 c         1 MOL      0.576930
     63 O10         7.7200   -2.0220    0.2270 o         1 MOL     -0.436839
     64 C21         7.3850   -4.8190    1.7360 c3        1 MOL     -0.181010
     65 C22         8.6700   -4.2940    2.2980 c         1 MOL      0.632564
     66 O11         8.7430   -3.7160    3.4360 o         1 MOL     -0.632027
     67 O12         9.7440   -4.4220    1.5870 o         1 MOL     -0.632027
     68 H28         6.8320   -2.9700    3.1970 hn        1 MOL      0.249155
     69 H29         5.5290   -4.3310    1.0330 h1        1 MOL      0.056407
     70 H30         7.5880   -5.5310    0.9370 hc        1 MOL      0.043967
     71 H31         6.8860   -5.4560    2.4620 hc        1 MOL      0.043967
     72 N7          6.7380   -3.6020   -1.1630 n         1 MOL     -0.335940
     73 C23         7.0760   -3.1560   -2.5040 c3        1 MOL     -0.475981
     74 C24         6.2790   -1.9250   -3.0630 c         1 MOL      0.645560
     75 O13         6.2620   -1.7220   -4.2150 o         1 MOL     -0.580899
     76 H32         6.1740   -4.4350   -1.0740 hn        1 MOL      0.270881
     77 H33         6.7120   -3.9530   -3.1500 h1        1 MOL      0.204852
     78 H34         8.1630   -3.0490   -2.5930 h1        1 MOL      0.204852
     79 N8          5.6730   -1.1510   -2.1990 n         1 MOL     -0.261097
     80 C25         4.8740    0.0790   -2.4890 c3        1 MOL      0.066673
     81 C26         5.1760    1.0500   -1.3170 c         1 MOL      0.335346
     82 O14         5.3930    0.6570   -0.1590 o         1 MOL     -0.404977
     83 C27         3.3690   -0.1980   -2.5340 c3        1 MOL      0.332251
     84 C28         2.9200   -1.2850   -3.5130 c3        1 MOL     -0.391757
     85 O15         2.6540    0.8560   -2.9680 oh        1 MOL     -0.604544
     86 H35         5.6570   -1.5100   -1.2530 hn        1 MOL      0.065924
     87 H36         5.1410    0.5410   -3.4410 h1        1 MOL      0.086499
     88 H37         2.9810   -0.6190   -1.6060 h1        1 MOL      0.046777
     89 H38         1.8740    1.0210   -2.4350 ho        1 MOL      0.398013
     90 H39         1.8460   -1.3860   -3.3750 hc        1 MOL      0.097264
     91 H40         3.2750   -1.0670   -4.5200 hc        1 MOL      0.097264
     92 H41         3.5030   -2.2050   -3.3400 hc        1 MOL      0.097264
     93 N9          5.1960    2.3620   -1.6430 n         1 MOL     -0.301606
     94 C29         5.4380    3.5170   -0.7850 c3        1 MOL     -0.118365
     95 C30         4.0970    4.1350   -0.2850 c         1 MOL      0.583305
     96 O16         4.0040    4.7340    0.7750 o         1 MOL     -0.584028
     97 C31         6.4030    4.5820   -1.3670 c3        1 MOL      0.276914
     98 C32         7.6900    3.8600   -1.8590 c3        1 MOL      0.005544
     99 C33         6.7270    5.6660   -0.2620 c3        1 MOL     -0.441049
    100 C34         8.5380    2.7900   -1.1920 c3        1 MOL     -0.233854
    101 H42         5.1000    2.4830   -2.6380 hn        1 MOL      0.254988
    102 H43         5.9490    3.2900    0.1420 h1        1 MOL      0.105263
    103 H44         6.0160    5.0700   -2.2580 hc        1 MOL     -0.067148
    104 H45         8.4210    4.6640   -1.9570 hc        1 MOL     -0.006812
    105 H46         7.4920    3.4660   -2.8520 hc        1 MOL     -0.006812
    106 H47         7.5260    6.2830   -0.6610 hc        1 MOL      0.117481
    107 H48         5.8580    6.2970   -0.0790 hc        1 MOL      0.117481
    108 H49         7.0750    5.1130    0.6080 hc        1 MOL      0.117481
    109 H50         7.9890    1.8890   -0.9090 hc        1 MOL      0.079371
    110 H51         9.2750    2.4740   -1.9280 hc        1 MOL      0.079371
    111 H52         8.9310    3.2600   -0.2850 hc        1 MOL      0.079371
    112 N10         3.0010    3.9560   -0.9960 n         1 MOL     -0.300547
    113 C35         1.7040    4.5020   -0.6570 c3        1 MOL      0.069397
    114 C36         0.5860    3.4670   -0.4950 c         1 MOL      0.466688
    115 O17         0.5990    2.4680   -1.1970 o         1 MOL     -0.507646
    116 C37         1.2570    5.5530   -1.6700 c3        1 MOL      0.331958
    117 C38         2.2060    6.7170   -1.8650 c3        1 MOL     -0.397943
    118 O18         0.0070    6.2190   -1.4100 oh        1 MOL     -0.613259
    119 H53         3.0800    3.3640   -1.8080 hn        1 MOL      0.122480
    120 H54         1.7270    4.9860    0.3180 h1        1 MOL      0.042482
    121 H55         1.0810    5.0020   -2.6000 h1        1 MOL      0.061435
    122 H56        -0.0280    6.5870   -0.5310 ho        1 MOL      0.369275
    123 H57         1.8670    7.3690   -2.6690 hc        1 MOL      0.097758
    124 H58         2.3180    7.2190   -0.8960 hc        1 MOL      0.097758
    125 H59         3.2010    6.3460   -2.1120 hc        1 MOL      0.097758
    126 N11        -0.3790    3.7670    0.2990 n         1 MOL     -0.409802
    127 C39        -1.6340    3.0290    0.3620 c3        1 MOL     -0.028378
    128 C40        -2.4020    2.7790   -1.0190 c         1 MOL      0.369096
    129 O19        -2.1720    3.5120   -2.0100 o         1 MOL     -0.493870
    130 C41        -2.5900    3.7110    1.3880 c3        1 MOL      0.504578
    131 C42        -2.8190    5.1840    1.0500 c3        1 MOL     -0.308974
    132 O20        -2.2460    3.4950    2.7550 oh        1 MOL     -0.630391
    133 H60        -0.2380    4.5430    0.9240 hn        1 MOL      0.277218
    134 H61        -1.5540    2.0490    0.8220 h1        1 MOL      0.124957
    135 H62        -3.5340    3.2090    1.1800 h1        1 MOL     -0.024414
    136 H63        -3.0640    3.3120    3.2230 ho        1 MOL      0.282166
    137 H64        -2.8410    5.3510   -0.0320 hc        1 MOL      0.061530
    138 H65        -3.8000    5.5340    1.3660 hc        1 MOL      0.061530
    139 H66        -2.0770    5.8850    1.4380 hc        1 MOL      0.061530
    140 N12        -3.4020    1.8610   -0.9280 n         1 MOL     -0.183245
    141 C43        -4.3520    1.6330   -2.0800 c3        1 MOL     -0.124448
    142 C44        -5.0220    0.2330   -2.0500 c         1 MOL      0.582976
    143 O21        -5.6700   -0.0920   -3.1070 o         1 MOL     -0.642225
    144 C45        -5.4450    2.6560   -1.9260 c3        1 MOL     -0.082277
    145 C46        -6.5040    2.8660   -3.0090 c3        1 MOL      0.005540
    146 C47        -5.9950    3.0750   -4.4170 c3        1 MOL     -0.196570
    147 C48        -5.2610    4.3790   -4.5640 c3        1 MOL      0.108273
    148 N13        -4.5080    4.5390   -5.7810 n4        1 MOL     -0.405827
    149 H67        -3.4080    1.2870   -0.0970 hn        1 MOL      0.073736
    150 H68        -3.8440    1.8520   -3.0230 h1        1 MOL      0.124473
    151 H69        -4.9810    3.6370   -1.8230 hc        1 MOL      0.052079
    152 H70        -5.9620    2.5430   -0.9690 hc        1 MOL      0.052079
    153 H71        -7.1560    3.6970   -2.7360 hc        1 MOL      0.044793
    154 H72        -7.1700    2.0110   -3.1310 hc        1 MOL      0.044793
    155 H73        -6.7780    2.8390   -5.1390 hc        1 MOL      0.075414
    156 H74        -5.2550    2.2870   -4.5470 hc        1 MOL      0.075414
    157 H75        -4.5860    4.4940   -3.7180 hx        1 MOL      0.058542
    158 H76        -6.0240    5.1540   -4.4550 hx        1 MOL      0.058542
    159 H77        -3.6080    4.0860   -5.6650 hn        1 MOL      0.315605
    160 H78        -5.0390    4.0580   -6.4870 hn        1 MOL      0.315605
    161 H79        -4.3980    5.5340   -5.9170 hn        1 MOL      0.315605
    162 N14        -4.8730   -0.6410   -1.0360 n         1 MOL     -0.275406
    163 C49        -5.4810   -2.0020   -1.0200 c3        1 MOL      0.142940
    164 C50        -6.8550   -1.9110   -0.3830 c         1 MOL      0.207444
    165 O22        -6.9990   -1.3060    0.6940 o         1 MOL     -0.406996
    166 C51        -4.5180   -2.9810   -0.2580 c3        1 MOL      0.274071
    167 C52        -5.0520   -4.3560   -0.1310 c3        1 MOL     -0.694986
    168 C53        -5.1930   -4.9360   -1.5330 c         1 MOL      0.739184
    169 O23        -4.1530   -5.0400   -2.2500 o         1 MOL     -0.726244
    170 O24        -6.3260   -5.2210   -1.9280 o         1 MOL     -0.726244
    171 H80        -4.1230   -0.4600   -0.3850 hn        1 MOL      0.218632
    172 H81        -5.5260   -2.4070   -2.0230 h1        1 MOL      0.027580
    173 H82        -4.2610   -2.6040    0.7300 hc        1 MOL     -0.060043
    174 H83        -3.6520   -3.1110   -0.9120 hc        1 MOL     -0.060043
    175 H84        -5.9430   -4.3490    0.4940 hc        1 MOL      0.221173
    176 H85        -4.3760   -4.9200    0.5180 hc        1 MOL      0.221173
    177 N15        -7.8690   -2.5560   -0.9990 n         1 MOL     -0.239060
    178 C54        -9.1970   -2.5700   -0.5370 c3        1 MOL      0.048889
    179 H86        -9.8750   -2.6600   -1.3850 h1        1 MOL      0.028263
    180 H87        -9.3390   -3.4160    0.1350 h1        1 MOL      0.028263
    181 H88        -9.4060   -1.6430   -0.0030 h1        1 MOL      0.028263
    182 H89        -7.6400   -3.0450   -1.8560 hn        1 MOL      0.325438
    183 Ca1        -1.7940   -4.4910   -2.9490 Ca        1 MOL      1.706017
    184 O25         0.5300   -5.7520   -3.0590 oh        1 MOL     -0.831974
    185 H90         0.5040   -6.2680   -2.2500 ho        1 MOL      0.418868
    186 H91         1.4380   -5.7940   -3.3450 ho        1 MOL      0.418868
    187 O26        -3.7130   -3.2850   -4.2920 oh        1 MOL     -0.831974
    188 H92        -4.4540   -3.7300   -4.7180 ho        1 MOL      0.418868
    189 H93        -3.8160   -2.3620   -4.5470 ho        1 MOL      0.418868
    190 O27        -0.6410   -3.1710   -4.9340 oh        1 MOL     -0.831974
    191 H94        -0.5360   -3.5920   -5.7870 ho        1 MOL      0.418868
    192 H95        -0.8840   -2.2660   -5.1520 ho        1 MOL      0.418868
@<TRIPOS>BOND
     1    1    2 1   
     2    1    4 1   
     3    1    5 1   
     4    1    6 1   
     5    2    3 2   
     6    2    7 1   
     7    7    8 1   
     8    7   15 1   
     9    8    9 1   
    10    8   11 1   
    11    8   16 1   
    12    9   10 2   
    13    9   19 1   
    14   11   12 1   
    15   11   17 1   
    16   11   18 1   
    17   12   13 1   
    18   12   14 1   
    19   19   20 1   
    20   19   28 1   
    21   20   21 1   
    22   20   23 1   
    23   20   29 1   
    24   21   22 2   
    25   21   41 1   
    26   23   24 1   
    27   23   30 1   
    28   23   31 1   
    29   24   25 1   
    30   24   32 1   
    31   24   33 1   
    32   25   26 1   
    33   25   34 1   
    34   25   35 1   
    35   26   27 1   
    36   26   36 1   
    37   26   37 1   
    38   27   38 1   
    39   27   39 1   
    40   27   40 1   
    41   41   42 1   
    42   41   49 1   
    43   42   43 1   
    44   42   45 1   
    45   42   50 1   
    46   43   44 2   
    47   43   53 1   
    48   45   46 1   
    49   45   51 1   
    50   45   52 1   
    51   46   47 1   
    52   46   48 1   
    53   53   54 1   
    54   53   57 1   
    55   54   55 1   
    56   54   58 1   
    57   54   59 1   
    58   55   56 2   
    59   55   60 1   
    60   60   61 1   
    61   60   68 1   
    62   61   62 1   
    63   61   64 1   
    64   61   69 1   
    65   62   63 2   
    66   62   72 1   
    67   64   65 1   
    68   64   70 1   
    69   64   71 1   
    70   65   66 1   
    71   65   67 1   
    72   72   73 1   
    73   72   76 1   
    74   73   74 1   
    75   73   77 1   
    76   73   78 1   
    77   74   75 2   
    78   74   79 1   
    79   79   80 1   
    80   79   86 1   
    81   80   81 1   
    82   80   83 1   
    83   80   87 1   
    84   81   82 2   
    85   81   93 1   
    86   83   84 1   
    87   83   85 1   
    88   83   88 1   
    89   84   90 1   
    90   84   91 1   
    91   84   92 1   
    92   85   89 1   
    93   93   94 1   
    94   93  101 1   
    95   94   95 1   
    96   94   97 1   
    97   94  102 1   
    98   95   96 2   
    99   95  112 1   
   100   97   98 1   
   101   97   99 1   
   102   97  103 1   
   103   98  100 1   
   104   98  104 1   
   105   98  105 1   
   106   99  106 1   
   107   99  107 1   
   108   99  108 1   
   109  100  109 1   
   110  100  110 1   
   111  100  111 1   
   112  112  113 1   
   113  112  119 1   
   114  113  114 1   
   115  113  116 1   
   116  113  120 1   
   117  114  115 2   
   118  114  126 1   
   119  116  117 1   
   120  116  118 1   
   121  116  121 1   
   122  117  123 1   
   123  117  124 1   
   124  117  125 1   
   125  118  122 1   
   126  126  127 1   
   127  126  133 1   
   128  127  128 1   
   129  127  130 1   
   130  127  134 1   
   131  128  129 2   
   132  128  140 1   
   133  130  131 1   
   134  130  132 1   
   135  130  135 1   
   136  131  137 1   
   137  131  138 1   
   138  131  139 1   
   139  132  136 1   
   140  140  141 1   
   141  140  149 1   
   142  141  142 1   
   143  141  144 1   
   144  141  150 1   
   145  142  143 2   
   146  142  162 1   
   147  144  145 1   
   148  144  151 1   
   149  144  152 1   
   150  145  146 1   
   151  145  153 1   
   152  145  154 1   
   153  146  147 1   
   154  146  155 1   
   155  146  156 1   
   156  147  148 1   
   157  147  157 1   
   158  147  158 1   
   159  148  159 1   
   160  148  160 1   
   161  148  161 1   
   162  162  163 1   
   163  162  171 1   
   164  163  164 1   
   165  163  166 1   
   166  163  172 1   
   167  164  165 2   
   168  164  177 1   
   169  166  167 1   
   170  166  173 1   
   171  166  174 1   
   172  167  168 1   
   173  167  175 1   
   174  167  176 1   
   175  168  169 1   
   176  168  170 1   
   177  177  178 1   
   178  177  182 1   
   179  178  179 1   
   180  178  180 1   
   181  178  181 1   
   182  184  185 1   
   183  184  186 1   
   184  187  188 1   
   185  187  189 1   
   186  190  191 1   
   187  190  192 1   
@<TRIPOS>SUBSTRUCTURE
     1 MOL         1 TEMP              0 ****  ****    0 ROOT
