@<TRIPOS>MOLECULE
MOL
  185   180     1     0     0
SMALL
resp


@<TRIPOS>ATOM
      1 C1         -5.3400    0.9900   -3.4570 c3        1 MOL     -0.434081
      2 C2         -6.0790    1.1570   -2.0730 c         1 MOL      0.521801
      3 O1         -5.5260    0.9500   -0.9530 o         1 MOL     -0.386518
      4 H1         -6.0780    0.9100   -4.2550 hc        1 MOL      0.123128
      5 H2         -4.7040    1.8570   -3.6370 hc        1 MOL      0.123128
      6 H3         -4.7290    0.0880   -3.4370 hc        1 MOL      0.123128
      7 N1         -7.3580    1.4740   -2.1930 n         1 MOL     -0.421312
      8 C3         -8.3460    1.7390   -1.1100 c3        1 MOL      0.091194
      9 C4         -8.4930    0.4870   -0.2460 c         1 MOL      0.490811
     10 O2         -8.8540    0.5880    0.8880 o         1 MOL     -0.515924
     11 C5         -8.1430    3.0860   -0.3750 c3        1 MOL     -0.260820
     12 C6         -7.8180    4.2580   -1.2040 c         1 MOL      0.831191
     13 O3         -7.5220    5.3120   -0.6860 o         1 MOL     -0.712517
     14 O4         -8.0270    4.1770   -2.4400 o         1 MOL     -0.712517
     15 H4         -7.7850    1.3870   -3.0980 hn        1 MOL      0.283789
     16 H5         -9.3090    1.8750   -1.6120 h1        1 MOL      0.069280
     17 H6         -7.2810    3.0740    0.2960 hc        1 MOL      0.073059
     18 H7         -9.0720    3.2990    0.1680 hc        1 MOL      0.073059
     19 N2         -8.0930   -0.7390   -0.7290 n         1 MOL     -0.522634
     20 C7         -8.0160   -1.9610    0.0490 c3        1 MOL      0.394698
     21 C8         -6.6620   -2.5520    0.3520 c         1 MOL      0.575043
     22 O5         -6.5720   -3.7320    0.7180 o         1 MOL     -0.600692
     23 C9         -9.1280   -2.9470   -0.3020 c3        1 MOL     -0.527807
     24 C10       -10.6180   -2.4890    0.0160 c3        1 MOL      0.247218
     25 C11       -11.6850   -3.3600   -0.5660 c3        1 MOL     -0.020861
     26 C12       -13.0210   -2.8840    0.0310 c3        1 MOL      0.175233
     27 N3        -14.2520   -3.5040   -0.5230 n4        1 MOL     -0.475451
     28 H8         -7.7660   -0.7910   -1.6790 hn        1 MOL      0.225351
     29 H9         -8.1640   -1.6480    1.0840 h1        1 MOL      0.059953
     30 H10        -8.9970   -3.8690    0.2610 hc        1 MOL      0.122980
     31 H11        -9.1190   -3.1030   -1.3820 hc        1 MOL      0.122980
     32 H12       -10.7710   -1.4490   -0.3060 hc        1 MOL     -0.019811
     33 H13       -10.7800   -2.4310    1.1000 hc        1 MOL     -0.019811
     34 H14       -11.5650   -4.4240   -0.3590 hc        1 MOL      0.007606
     35 H15       -11.7990   -3.1500   -1.6340 hc        1 MOL      0.007606
     36 H16       -13.0450   -1.8400   -0.2650 hx        1 MOL      0.036429
     37 H17       -12.9830   -2.9020    1.1150 hx        1 MOL      0.036429
     38 H18       -14.4230   -3.1590   -1.4530 hn        1 MOL      0.340615
     39 H19       -14.1660   -4.5080   -0.4800 hn        1 MOL      0.340615
     40 H20       -15.0340   -3.2670    0.0580 hn        1 MOL      0.340615
     41 N4         -5.5970   -1.7300    0.2400 n         1 MOL     -0.567215
     42 C13        -4.1910   -2.2520    0.2040 c3        1 MOL      0.062610
     43 C14        -3.6850   -2.5240    1.6200 c         1 MOL      0.641646
     44 O6         -3.9430   -1.7570    2.5800 o         1 MOL     -0.526814
     45 C15        -3.3690   -1.2110   -0.6260 c3        1 MOL     -0.007882
     46 C16        -1.9130   -1.5620   -0.6410 c         1 MOL      0.662746
     47 O7         -1.1970   -1.6720    0.3920 o         1 MOL     -0.783718
     48 O8         -1.3240   -1.9080   -1.6600 o         1 MOL     -0.783718
     49 H21        -5.8510   -0.8460   -0.1670 hn        1 MOL      0.252168
     50 H22        -4.1950   -3.1930   -0.3460 h1        1 MOL      0.024654
     51 H23        -3.5200   -0.2090   -0.2290 hc        1 MOL      0.040782
     52 H24        -3.8240   -1.1250   -1.6140 hc        1 MOL      0.040782
     53 N5         -2.9670   -3.6350    1.7610 n         1 MOL     -0.356296
     54 C17        -2.6240   -4.1910    3.0810 c3        1 MOL     -0.148796
     55 C18        -1.7230   -3.2100    3.9170 c         1 MOL      0.598880
     56 O9         -1.9980   -3.1640    5.1350 o         1 MOL     -0.540366
     57 H25        -2.7240   -4.0940    0.8930 hn        1 MOL      0.282375
     58 H26        -2.0830   -5.1150    2.8760 h1        1 MOL      0.102573
     59 H27        -3.5350   -4.4150    3.6300 h1        1 MOL      0.102573
     60 N6         -0.7930   -2.4200    3.2980 n         1 MOL     -0.470131
     61 C19        -0.0430   -1.3910    4.0280 c3        1 MOL      0.071007
     62 C20        -0.4690    0.1200    3.7310 c         1 MOL      0.421983
     63 O10         0.0060    1.0240    4.3600 o         1 MOL     -0.548840
     64 C21         1.4900   -1.6760    3.9540 c3        1 MOL     -0.267754
     65 C22         2.0560   -1.1190    2.7160 c         1 MOL      0.823422
     66 N7          3.0970   -0.3690    2.8670 n         1 MOL     -0.756017
     67 O11         1.7160   -1.4170    1.5880 o         1 MOL     -0.779196
     68 H28        -0.7610   -2.3250    2.2910 hn        1 MOL      0.271122
     69 H29        -0.3300   -1.5950    5.0580 h1        1 MOL      0.097466
     70 H30         1.8280   -2.6960    4.0920 hc        1 MOL      0.086854
     71 H31         2.0240   -1.1110    4.7180 hc        1 MOL      0.086854
     72 H32         3.5290   -0.3220    3.7810 hn        1 MOL      0.348468
     73 H33         3.5020    0.0690    2.0540 hn        1 MOL      0.348468
     74 N8         -1.4600    0.2260    2.8680 n         1 MOL      0.070128
     75 C23        -2.2810    1.4480    2.8110 c3        1 MOL     -0.362259
     76 C24        -1.7080    2.4250    1.8150 c         1 MOL      0.540870
     77 O12        -2.1230    3.6080    1.7830 o         1 MOL     -0.494708
     78 H34        -1.9020   -0.6190    2.5300 hn        1 MOL      0.064424
     79 H35        -2.2830    1.9430    3.7810 h1        1 MOL      0.160112
     80 H36        -3.2790    1.1470    2.4900 h1        1 MOL      0.160112
     81 N9         -0.7770    1.9520    1.0170 n         1 MOL     -0.267068
     82 C25        -0.0700    2.7610   -0.0090 c3        1 MOL     -0.054674
     83 C26         1.2500    2.0850   -0.4590 c         1 MOL      0.361263
     84 O13         1.3870    0.8390   -0.5170 o         1 MOL     -0.343920
     85 C27        -0.9890    2.8590   -1.2430 c3        1 MOL      0.053585
     86 C28        -2.0870    3.8690   -1.1700 ca        1 MOL     -0.014010
     87 C29        -1.8160    5.2510   -1.3430 ca        1 MOL     -0.229299
     88 C30        -3.3470    3.4630   -0.8130 ca        1 MOL     -0.229299
     89 C31        -2.8440    6.2140   -1.2030 ca        1 MOL     -0.185102
     90 C32        -4.3850    4.3870   -0.7350 ca        1 MOL     -0.185102
     91 C33        -4.1640    5.7540   -0.9780 ca        1 MOL      0.363833
     92 O14        -5.1850    6.5930   -0.9220 oh        1 MOL     -0.541047
     93 H37        -0.4000    1.0180    1.1430 hn        1 MOL      0.109593
     94 H38         0.1350    3.7630    0.3770 h1        1 MOL      0.066902
     95 H39        -1.4630    1.8950   -1.4420 hc        1 MOL      0.019709
     96 H40        -0.3680    3.1970   -2.0680 hc        1 MOL      0.019709
     97 H41        -0.7880    5.5530   -1.4210 ha        1 MOL      0.125793
     98 H42        -3.6560    2.4440   -0.5980 ha        1 MOL      0.125793
     99 H43        -2.6910    7.2860   -1.2800 ha        1 MOL      0.116047
    100 H44        -5.3260    3.9470   -0.4400 ha        1 MOL      0.116047
    101 H45        -5.9640    6.1080   -0.6360 ho        1 MOL      0.425027
    102 N10         2.2470    2.9160   -0.8230 n         1 MOL     -0.315510
    103 C34         3.6150    2.4560   -1.0120 c3        1 MOL      0.031159
    104 C35         4.3670    2.0820    0.2520 c         1 MOL      0.365813
    105 O15         4.7570    0.9410    0.3540 o         1 MOL     -0.410797
    106 C36         4.4950    3.4280   -1.7990 c3        1 MOL      0.214985
    107 C37         3.7290    4.1750   -2.9390 c3        1 MOL     -0.016089
    108 C38         5.8020    2.6980   -2.2760 c3        1 MOL     -0.223908
    109 C39         2.9680    3.3890   -4.0280 c3        1 MOL     -0.303398
    110 H46         2.0990    3.8920   -0.6680 hn        1 MOL      0.268703
    111 H47         3.6130    1.5470   -1.6210 h1        1 MOL      0.012838
    112 H48         4.8180    4.2000   -1.1150 hc        1 MOL     -0.079986
    113 H49         4.5060    4.7640   -3.4170 hc        1 MOL      0.008175
    114 H50         3.0190    4.8310   -2.4370 hc        1 MOL      0.008175
    115 H51         5.8120    1.6650   -2.6110 hc        1 MOL      0.067983
    116 H52         6.2360    3.3890   -3.0040 hc        1 MOL      0.067983
    117 H53         6.5220    2.8070   -1.4740 hc        1 MOL      0.067983
    118 H54         2.7610    4.0650   -4.8660 hc        1 MOL      0.091611
    119 H55         3.6050    2.6020   -4.4260 hc        1 MOL      0.091611
    120 H56         2.0860    3.0280   -3.5090 hc        1 MOL      0.091611
    121 N11         4.6440    2.9710    1.1580 n         1 MOL     -0.205631
    122 C40         5.2510    2.7280    2.4760 c3        1 MOL     -0.341526
    123 C41         6.7170    2.3780    2.2600 c         1 MOL      0.780051
    124 O16         7.2510    1.6480    3.0440 o         1 MOL     -0.519364
    125 C42         5.1920    4.0260    3.2220 c3        1 MOL      0.261414
    126 O17         5.8790    5.0860    2.5870 oh        1 MOL     -0.672536
    127 H57         4.3050    3.9140    1.0440 hn        1 MOL      0.228459
    128 H58         4.7640    1.8440    2.8950 h1        1 MOL      0.143281
    129 H59         5.6200    3.9650    4.2280 h1        1 MOL      0.040353
    130 H60         4.2110    4.4480    3.4290 h1        1 MOL      0.040353
    131 H61         5.5550    5.9580    2.8360 ho        1 MOL      0.442710
    132 N12         7.3400    2.9450    1.1270 n         1 MOL     -0.507824
    133 C43         8.7380    2.5600    0.7740 c3        1 MOL      0.195659
    134 C44         8.9330    1.0300    0.7430 c         1 MOL      0.484864
    135 O18         9.9630    0.4730    1.0300 o         1 MOL     -0.518344
    136 C45         9.7520    3.2500    1.6900 c3        1 MOL     -0.307586
    137 H62         6.8320    3.5530    0.4930 hn        1 MOL      0.292666
    138 H63         8.9050    2.9390   -0.2330 h1        1 MOL      0.053750
    139 H64        10.7530    3.1310    1.2770 hc        1 MOL      0.092858
    140 H65         9.5680    4.3210    1.7730 hc        1 MOL      0.092858
    141 H66         9.8360    2.7880    2.6740 hc        1 MOL      0.092858
    142 N13         7.8950    0.3180    0.2960 n         1 MOL     -0.502078
    143 C46         7.8140   -1.1460    0.4980 c3        1 MOL      0.581788
    144 C47         7.2080   -1.9250   -0.6640 c         1 MOL      0.360705
    145 O19         6.7630   -1.2770   -1.5520 o         1 MOL     -0.450014
    146 C48         7.0580   -1.3580    1.8450 c3        1 MOL     -0.426243
    147 H67         7.0310    0.8290    0.1310 hn        1 MOL      0.062498
    148 H68         8.7800   -1.6310    0.6200 h1        1 MOL     -0.060897
    149 H69         6.1300   -0.7900    1.8300 hc        1 MOL      0.105688
    150 H70         6.8380   -2.4280    1.9610 hc        1 MOL      0.105688
    151 H71         7.8240   -1.1290    2.5900 hc        1 MOL      0.105688
    152 N14         7.4160   -3.2310   -0.6860 n         1 MOL     -0.425215
    153 C49         7.0930   -4.2230   -1.7630 c3        1 MOL     -0.229576
    154 C50         7.7760   -3.8560   -3.1310 c         1 MOL      0.464355
    155 O20         7.5750   -4.6330   -4.0610 o         1 MOL     -0.517661
    156 C51         5.6120   -4.3200   -1.9170 c3        1 MOL      0.242611
    157 C52         4.9520   -4.9610   -0.6880 c3        1 MOL     -0.113308
    158 C53         3.5040   -4.8120   -0.7970 c         1 MOL      0.742505
    159 O21         2.7800   -5.7240   -1.2680 o         1 MOL     -0.739894
    160 O22         3.0000   -3.7440   -0.4210 o         1 MOL     -0.739894
    161 H72         7.9180   -3.6350    0.0940 hn        1 MOL      0.302922
    162 H73         7.5400   -5.1840   -1.5100 h1        1 MOL      0.150283
    163 H74         5.2990   -4.8500   -2.8120 hc        1 MOL     -0.001074
    164 H75         5.2470   -3.3030   -2.0960 hc        1 MOL     -0.001074
    165 H76         5.3820   -4.4650    0.1800 hc        1 MOL     -0.003416
    166 H77         5.2330   -6.0120   -0.7160 hc        1 MOL     -0.003416
    167 N15         8.5700   -2.7900   -3.2430 n         1 MOL     -0.317110
    168 C54         8.9560   -2.1050   -4.5360 c3        1 MOL     -0.009020
    169 H78         8.8620   -2.8100   -5.3630 h1        1 MOL      0.063415
    170 H79         8.2970   -1.2540   -4.7080 h1        1 MOL      0.063415
    171 H80         9.9880   -1.7590   -4.4710 h1        1 MOL      0.063415
    172 H81         8.6040   -2.3760   -2.3220 hn        1 MOL      0.207303
    173 Ca1         1.1180   -1.9040   -0.8510 Ca        1 MOL      1.815765
    174 O23         3.7890   -0.9760   -1.2390 oh        1 MOL     -0.830955
    175 H82         4.5770   -1.3600   -1.6410 ho        1 MOL      0.398508
    176 H83         4.1390   -0.3450   -0.6070 ho        1 MOL      0.398508
    177 O24         0.2690   -4.3650   -0.6030 oh        1 MOL     -0.830955
    178 H84        -0.4620   -4.9900   -0.6310 ho        1 MOL      0.398508
    179 H85         1.0310   -4.8710   -0.8860 ho        1 MOL      0.398508
    180 O25         1.1620   -0.4290   -3.0410 oh        1 MOL     -0.830955
    181 H86         1.9280   -0.6490   -3.5760 ho        1 MOL      0.398508
    182 H87         0.6640    0.1800   -3.5860 ho        1 MOL      0.398508
    183 O26         1.6020   -3.5940   -2.9580 oh        1 MOL     -0.830955
    184 H88         1.5990   -4.5490   -2.9020 ho        1 MOL      0.398508
    185 H89         1.2200   -3.4040   -3.8200 ho        1 MOL      0.398508
@<TRIPOS>BOND
     1    1    2 1   
     2    1    4 1   
     3    1    5 1   
     4    1    6 1   
     5    2    3 2   
     6    2    7 1   
     7    7    8 1   
     8    7   15 1   
     9    8    9 1   
    10    8   11 1   
    11    8   16 1   
    12    9   10 2   
    13    9   19 1   
    14   11   12 1   
    15   11   17 1   
    16   11   18 1   
    17   12   13 1   
    18   12   14 1   
    19   19   20 1   
    20   19   28 1   
    21   20   21 1   
    22   20   23 1   
    23   20   29 1   
    24   21   22 2   
    25   21   41 1   
    26   23   24 1   
    27   23   30 1   
    28   23   31 1   
    29   24   25 1   
    30   24   32 1   
    31   24   33 1   
    32   25   26 1   
    33   25   34 1   
    34   25   35 1   
    35   26   27 1   
    36   26   36 1   
    37   26   37 1   
    38   27   38 1   
    39   27   39 1   
    40   27   40 1   
    41   41   42 1   
    42   41   49 1   
    43   42   43 1   
    44   42   45 1   
    45   42   50 1   
    46   43   44 2   
    47   43   53 1   
    48   45   46 1   
    49   45   51 1   
    50   45   52 1   
    51   46   47 1   
    52   46   48 1   
    53   53   54 1   
    54   53   57 1   
    55   54   55 1   
    56   54   58 1   
    57   54   59 1   
    58   55   56 2   
    59   55   60 1   
    60   60   61 1   
    61   60   68 1   
    62   61   62 1   
    63   61   64 1   
    64   61   69 1   
    65   62   63 2   
    66   62   74 1   
    67   64   65 1   
    68   64   70 1   
    69   64   71 1   
    70   65   66 1   
    71   65   67 2   
    72   66   72 1   
    73   66   73 1   
    74   74   75 1   
    75   74   78 1   
    76   75   76 1   
    77   75   79 1   
    78   75   80 1   
    79   76   77 2   
    80   76   81 1   
    81   81   82 1   
    82   81   93 1   
    83   82   83 1   
    84   82   85 1   
    85   82   94 1   
    86   83   84 2   
    87   83  102 1   
    88   85   86 1   
    89   85   95 1   
    90   85   96 1   
    91   86   87 ar  
    92   86   88 ar  
    93   87   89 ar  
    94   87   97 1   
    95   88   90 ar  
    96   88   98 1   
    97   89   91 ar  
    98   89   99 1   
    99   90   91 ar  
   100   90  100 1   
   101   91   92 1   
   102   92  101 1   
   103  102  103 1   
   104  102  110 1   
   105  103  104 1   
   106  103  106 1   
   107  103  111 1   
   108  104  105 2   
   109  104  121 1   
   110  106  107 1   
   111  106  108 1   
   112  106  112 1   
   113  107  109 1   
   114  107  113 1   
   115  107  114 1   
   116  108  115 1   
   117  108  116 1   
   118  108  117 1   
   119  109  118 1   
   120  109  119 1   
   121  109  120 1   
   122  121  122 1   
   123  121  127 1   
   124  122  123 1   
   125  122  125 1   
   126  122  128 1   
   127  123  124 2   
   128  123  132 1   
   129  125  126 1   
   130  125  129 1   
   131  125  130 1   
   132  126  131 1   
   133  132  133 1   
   134  132  137 1   
   135  133  134 1   
   136  133  136 1   
   137  133  138 1   
   138  134  135 2   
   139  134  142 1   
   140  136  139 1   
   141  136  140 1   
   142  136  141 1   
   143  142  143 1   
   144  142  147 1   
   145  143  144 1   
   146  143  146 1   
   147  143  148 1   
   148  144  145 2   
   149  144  152 1   
   150  146  149 1   
   151  146  150 1   
   152  146  151 1   
   153  152  153 1   
   154  152  161 1   
   155  153  154 1   
   156  153  156 1   
   157  153  162 1   
   158  154  155 2   
   159  154  167 1   
   160  156  157 1   
   161  156  163 1   
   162  156  164 1   
   163  157  158 1   
   164  157  165 1   
   165  157  166 1   
   166  158  159 1   
   167  158  160 1   
   168  167  168 1   
   169  167  172 1   
   170  168  169 1   
   171  168  170 1   
   172  168  171 1   
   173  174  175 1   
   174  174  176 1   
   175  177  178 1   
   176  177  179 1   
   177  180  181 1   
   178  180  182 1   
   179  183  184 1   
   180  183  185 1   
@<TRIPOS>SUBSTRUCTURE
     1 MOL         1 TEMP              0 ****  ****    0 ROOT
