@<TRIPOS>MOLECULE
MOL
  195   189     1     0     0
SMALL
resp


@<TRIPOS>ATOM
      1 C1         -4.2670   -1.3280    2.8830 c3        1 MOL     -0.143063
      2 C2         -3.3270   -2.1520    2.0210 c         1 MOL      0.646904
      3 O1         -2.2180   -1.6260    1.7620 o         1 MOL     -0.502397
      4 H1         -4.0420   -1.5050    3.9350 hc        1 MOL      0.020912
      5 H2         -4.1370   -0.2700    2.6560 hc        1 MOL      0.020912
      6 H3         -5.2970   -1.6200    2.6780 hc        1 MOL      0.020912
      7 N1         -3.7350   -3.4170    1.6730 n         1 MOL     -0.628616
      8 C3         -3.0690   -4.1670    0.5750 c3        1 MOL     -0.021634
      9 C4         -1.5880   -4.5030    0.7780 c         1 MOL      0.734556
     10 O2         -0.7440   -4.5130   -0.1010 o         1 MOL     -0.543254
     11 C5         -3.5560   -3.5910   -0.7850 c3        1 MOL     -0.516286
     12 C6         -5.0940   -3.4410   -0.9160 c         1 MOL      0.982779
     13 O3         -5.9360   -3.8710   -0.1400 o         1 MOL     -0.810252
     14 O4         -5.4740   -2.9530   -2.0310 o         1 MOL     -0.810252
     15 H4         -4.4370   -3.9060    2.2100 hn        1 MOL      0.357648
     16 H5         -3.5710   -5.1270    0.7280 h1        1 MOL      0.098579
     17 H6         -3.3380   -4.3940   -1.4930 hc        1 MOL      0.175450
     18 H7         -3.0870   -2.6350   -1.0220 hc        1 MOL      0.175450
     19 N2         -1.1980   -4.7300    2.0540 n         1 MOL     -0.688090
     20 C7          0.1930   -4.8840    2.4800 c3        1 MOL     -0.088481
     21 C8          0.7990   -6.2250    1.9680 c         1 MOL      0.669580
     22 O5          0.1770   -7.3110    2.0250 o         1 MOL     -0.587716
     23 C9          0.3750   -4.6740    4.0210 c3        1 MOL      0.006563
     24 C10        -0.3860   -5.7110    4.9330 c3        1 MOL      0.204738
     25 C11         0.2830   -3.1690    4.4250 c3        1 MOL     -0.147984
     26 C12         0.2590   -5.7600    6.3200 c3        1 MOL     -0.115906
     27 H8         -1.9000   -4.5720    2.7640 hn        1 MOL      0.314558
     28 H9          0.7700   -4.0010    2.1950 h1        1 MOL      0.246555
     29 H10         1.3820   -5.0670    4.1600 hc        1 MOL      0.014590
     30 H11        -0.3200   -6.6900    4.4800 hc        1 MOL     -0.046888
     31 H12        -1.4540   -5.5030    5.0580 hc        1 MOL     -0.046888
     32 H13         0.5310   -3.0490    5.4770 hc        1 MOL      0.049393
     33 H14         0.9500   -2.6220    3.7570 hc        1 MOL      0.049393
     34 H15        -0.7410   -2.8130    4.3140 hc        1 MOL      0.049393
     35 H16         1.2890   -5.4180    6.4590 hc        1 MOL      0.008641
     36 H17        -0.3760   -5.2390    7.0410 hc        1 MOL      0.008641
     37 H18         0.1870   -6.7880    6.6840 hc        1 MOL      0.008641
     38 N3          2.0300   -6.1750    1.4110 n         1 MOL     -0.530342
     39 C13         2.7960   -5.0480    0.8660 c3        1 MOL     -0.027053
     40 C14         3.5440   -5.4940   -0.4140 c         1 MOL      0.682003
     41 O6          4.2640   -6.5020   -0.3790 o         1 MOL     -0.566890
     42 C15         3.8680   -4.4620    1.9260 c3        1 MOL     -0.134628
     43 C16         4.7980   -3.3600    1.4570 c         1 MOL      0.637539
     44 O7          4.3620   -2.6080    0.5210 o         1 MOL     -0.667445
     45 O8          5.9690   -3.3350    1.9230 o         1 MOL     -0.667445
     46 H19         2.4100   -7.0860    1.2010 hn        1 MOL      0.288210
     47 H20         2.1410   -4.2000    0.6310 h1        1 MOL     -0.001452
     48 H21         4.5490   -5.2110    2.3240 hc        1 MOL      0.028742
     49 H22         3.3020   -4.0620    2.7680 hc        1 MOL      0.028742
     50 N4          3.4040   -4.8040   -1.5640 n         1 MOL     -0.474461
     51 C17         4.0320   -5.2130   -2.8090 c3        1 MOL     -0.094972
     52 C18         5.2700   -4.3960   -3.1580 c         1 MOL      0.676375
     53 O9          5.9730   -4.7010   -4.1110 o         1 MOL     -0.627815
     54 H23         2.8280   -3.9700   -1.5500 hn        1 MOL      0.346318
     55 H24         3.3150   -5.0930   -3.6170 h1        1 MOL      0.083013
     56 H25         4.3060   -6.2690   -2.8610 h1        1 MOL      0.083013
     57 N5          5.6740   -3.3090   -2.4670 n         1 MOL     -0.560825
     58 C19         6.5160   -2.2570   -3.0570 c3        1 MOL      0.125996
     59 C20         7.3800   -1.4990   -2.1370 c         1 MOL      0.361727
     60 O10         8.3430   -0.8660   -2.6250 o         1 MOL     -0.581867
     61 C21         5.5910   -1.2000   -3.7570 c3        1 MOL     -0.383399
     62 C22         4.3870   -0.6780   -2.8720 c         1 MOL      0.739123
     63 O11         3.2270   -1.1150   -3.1860 o         1 MOL     -0.694498
     64 O12         4.6370   -0.0560   -1.8270 o         1 MOL     -0.694498
     65 H26         5.1320   -3.0580   -1.6620 hn        1 MOL      0.345963
     66 H27         7.2340   -2.7560   -3.6990 h1        1 MOL      0.117682
     67 H28         5.3440   -1.5880   -4.7460 hc        1 MOL      0.089475
     68 H29         6.1750   -0.3070   -3.9840 hc        1 MOL      0.089475
     69 N6          7.1490   -1.4520   -0.7610 n         1 MOL     -0.113228
     70 C23         8.0670   -0.8250    0.2000 c3        1 MOL     -0.273580
     71 C24         8.1040    0.6980    0.0950 c         1 MOL      0.515271
     72 O13         8.8600    1.3260    0.8250 o         1 MOL     -0.621132
     73 H30         6.3380   -1.9570   -0.4240 hn        1 MOL      0.156594
     74 H31         9.0510   -1.2960    0.1400 h1        1 MOL      0.126635
     75 H32         7.6640   -1.0320    1.1970 h1        1 MOL      0.126635
     76 N7          7.2450    1.2200   -0.7180 n         1 MOL      0.008894
     77 C25         7.1090    2.6430   -1.0090 c3        1 MOL     -0.001059
     78 C26         6.6940    3.5880    0.1930 c         1 MOL      0.589543
     79 O14         7.0800    4.7690    0.2350 o         1 MOL     -0.525472
     80 C27         8.0250    3.2780   -2.0190 c3        1 MOL      0.070968
     81 C28         8.3360    2.3900   -3.2520 c3        1 MOL     -0.013013
     82 C29         8.8680    3.0900   -4.5050 c         1 MOL      0.519444
     83 N8          9.3930    2.2910   -5.4060 n         1 MOL     -0.737065
     84 O15         8.6750    4.3220   -4.7360 o         1 MOL     -0.565492
     85 H33         6.6040    0.5730   -1.1600 hn        1 MOL      0.142196
     86 H34         6.2140    2.6410   -1.6280 h1        1 MOL      0.038992
     87 H35         8.9370    3.5080   -1.4610 hc        1 MOL     -0.016486
     88 H36         7.6530    4.2600   -2.3210 hc        1 MOL     -0.016486
     89 H37         7.5440    1.7750   -3.6780 hc        1 MOL      0.012683
     90 H38         9.0740    1.6350   -2.9810 hc        1 MOL      0.012683
     91 H39         9.4700    1.3200   -5.1180 hn        1 MOL      0.348736
     92 H40         9.5570    2.7360   -6.2960 hn        1 MOL      0.348736
     93 N9          6.0550    2.9620    1.2390 n         1 MOL     -0.518528
     94 C30         5.6180    3.7150    2.4040 c3        1 MOL     -0.057410
     95 C31         4.1610    3.3930    2.7770 c         1 MOL      0.616572
     96 O16         3.4850    4.2570    3.3830 o         1 MOL     -0.612215
     97 C32         6.5730    3.2820    3.6280 c3        1 MOL      0.310910
     98 C33         6.5110    1.7810    4.0630 c3        1 MOL     -0.386317
     99 C34         8.0300    3.6740    3.3700 c3        1 MOL     -0.386317
    100 H41         5.6950    2.0200    1.1860 hn        1 MOL      0.206051
    101 H42         5.7230    4.7800    2.2180 h1        1 MOL      0.099086
    102 H43         6.1410    3.8420    4.4610 hc        1 MOL     -0.057307
    103 H44         5.5020    1.4680    4.3210 hc        1 MOL      0.092415
    104 H45         6.8930    1.1310    3.2770 hc        1 MOL      0.092415
    105 H46         7.1790    1.6350    4.9270 hc        1 MOL      0.092415
    106 H47         8.2500    4.6390    2.9280 hc        1 MOL      0.092415
    107 H48         8.4870    3.5840    4.3590 hc        1 MOL      0.092415
    108 H49         8.4050    2.8800    2.7130 hc        1 MOL      0.092415
    109 N10         3.6460    2.2440    2.5110 n         1 MOL     -0.372598
    110 C35         2.2800    1.8790    2.4880 c3        1 MOL      0.057463
    111 C36         1.4880    2.2090    1.2850 c         1 MOL      0.729299
    112 O17         2.1090    2.3700    0.2200 o         1 MOL     -0.544834
    113 C37         2.2980    0.3640    2.7680 c3        1 MOL     -0.325914
    114 C38         0.8450   -0.2320    2.7550 c         1 MOL      0.573991
    115 N11         0.5540   -1.1390    1.8010 n         1 MOL     -0.718341
    116 O18         0.0230    0.2900    3.5180 o         1 MOL     -0.563996
    117 H50         4.1680    1.5700    1.9750 hn        1 MOL      0.303364
    118 H51         1.7690    2.1680    3.4080 h1        1 MOL      0.091252
    119 H52         2.6760    0.1510    3.7680 hc        1 MOL      0.100652
    120 H53         2.7620   -0.0930    1.8960 hc        1 MOL      0.100652
    121 H54         1.2090   -1.3810    1.0570 hn        1 MOL      0.376492
    122 H55        -0.3980   -1.4640    1.7600 hn        1 MOL      0.376492
    123 N12         0.1610    2.4740    1.4170 n         1 MOL     -0.731471
    124 C39        -0.8240    2.6150    0.2640 c3        1 MOL      0.193297
    125 C40        -1.8580    3.6600    0.5900 c         1 MOL      0.779103
    126 O19        -2.1640    3.9520    1.7510 o         1 MOL     -0.589154
    127 C41        -1.5410    1.2470    0.0160 c3        1 MOL     -0.175041
    128 C42        -2.4350    1.1590   -1.1700 ca        1 MOL      0.085107
    129 C43        -3.6360    0.4190   -1.1310 ca        1 MOL     -0.134183
    130 C44        -2.0640    1.7640   -2.4460 ca        1 MOL     -0.134183
    131 C45        -4.3500    0.2490   -2.2770 ca        1 MOL     -0.242305
    132 C46        -2.7790    1.4420   -3.6020 ca        1 MOL     -0.242305
    133 C47        -3.8970    0.6590   -3.5780 ca        1 MOL      0.314842
    134 O20        -4.6030    0.4990   -4.7610 oh        1 MOL     -0.577761
    135 H56        -0.2360    2.2460    2.3140 hn        1 MOL      0.318494
    136 H57        -0.2450    2.9410   -0.6050 h1        1 MOL      0.058060
    137 H58        -2.1930    0.9710    0.8390 hc        1 MOL      0.099866
    138 H59        -0.8170    0.4550   -0.1850 hc        1 MOL      0.099866
    139 H60        -4.0680    0.0730   -0.2130 ha        1 MOL      0.106795
    140 H61        -1.2490    2.4630   -2.5240 ha        1 MOL      0.106795
    141 H62        -5.3530   -0.1400   -2.1880 ha        1 MOL      0.156965
    142 H63        -2.5840    1.9190   -4.5510 ha        1 MOL      0.156965
    143 H64        -5.4250    0.0240   -4.6530 ho        1 MOL      0.426621
    144 N13        -2.5130    4.1570   -0.4590 n         1 MOL     -0.886318
    145 C48        -3.4690    5.2540   -0.4080 c3        1 MOL      0.161833
    146 C49        -4.7030    4.9400   -1.2800 c         1 MOL      0.527672
    147 O21        -4.7960    5.2330   -2.5090 o         1 MOL     -0.545555
    148 C50        -2.8660    6.6390   -0.6300 c3        1 MOL      0.216091
    149 C51        -3.7950    7.7480   -0.1110 c3        1 MOL     -0.317808
    150 C52        -3.0770    9.1470    0.0500 c         1 MOL      0.753214
    151 O22        -3.2690    9.8160    1.0780 o         1 MOL     -0.692779
    152 O23        -2.4450    9.5080   -0.8710 o         1 MOL     -0.692779
    153 H65        -2.1630    3.8460   -1.3590 hn        1 MOL      0.391329
    154 H66        -3.8160    5.2960    0.6200 h1        1 MOL      0.092720
    155 H67        -2.5900    6.8410   -1.6580 hc        1 MOL     -0.021468
    156 H68        -1.9120    6.5900   -0.1080 hc        1 MOL     -0.021468
    157 H69        -4.2150    7.5180    0.8750 hc        1 MOL      0.048012
    158 H70        -4.6150    7.8000   -0.8240 hc        1 MOL      0.048012
    159 N14        -5.7400    4.2730   -0.6600 n         1 MOL     -0.503910
    160 C53        -5.8410    3.7200    0.6630 c3        1 MOL     -0.050827
    161 C54        -5.9520    4.8070    1.7540 c         1 MOL      0.418548
    162 O24        -6.5850    5.8660    1.5300 o         1 MOL     -0.497353
    163 C55        -6.9480    2.6930    0.7390 c3        1 MOL      0.117400
    164 C56        -6.5880    1.5060   -0.0760 c3        1 MOL      0.592824
    165 C57        -7.7280    0.4880   -0.3680 c         1 MOL      0.485372
    166 O25        -8.8080    0.9560   -0.8020 o         1 MOL     -0.728317
    167 O26        -7.5230   -0.7630   -0.2780 o         1 MOL     -0.728317
    168 H71        -6.5200    4.2220   -1.3070 hn        1 MOL      0.304569
    169 H72        -4.9850    3.1010    0.9150 h1        1 MOL      0.084000
    170 H73        -7.8870    3.1020    0.3750 hc        1 MOL     -0.070334
    171 H74        -7.0110    2.3420    1.7760 hc        1 MOL     -0.070334
    172 H75        -5.8280    0.9790    0.4990 hc        1 MOL     -0.154131
    173 H76        -6.1920    1.7550   -1.0630 hc        1 MOL     -0.154131
    174 N15        -5.2220    4.5710    2.8740 n         1 MOL     -0.225176
    175 C58        -5.2440    5.3540    4.1450 c3        1 MOL     -0.344713
    176 H77        -5.0210    4.6920    4.9820 h1        1 MOL      0.135267
    177 H78        -4.4950    6.1440    4.0980 h1        1 MOL      0.135267
    178 H79        -6.2310    5.7950    4.2830 h1        1 MOL      0.135267
    179 H80        -4.6740    3.7270    2.8830 hn        1 MOL      0.249940
    180 Ca1        -8.0750   -2.8660   -1.5330 Ca        1 MOL      1.687012
    181 O27       -10.5430   -3.8820   -1.8520 oh        1 MOL     -0.819258
    182 H81       -11.2530   -3.4850   -2.3560 ho        1 MOL      0.387042
    183 H82       -10.9780   -4.4630   -1.2350 ho        1 MOL      0.387042
    184 O28        -7.4780   -5.4810   -1.9480 oh        1 MOL     -0.819258
    185 H83        -7.7040   -6.3450   -2.3100 ho        1 MOL      0.387042
    186 H84        -6.7220   -5.6460   -1.3890 ho        1 MOL      0.387042
    187 O29       -10.3920   -1.4010   -0.3360 oh        1 MOL     -0.819258
    188 H85        -9.9080   -0.5770   -0.4040 ho        1 MOL      0.387042
    189 H86       -10.7410   -1.4170    0.5460 ho        1 MOL      0.387042
    190 O30        -9.1930   -0.9300   -2.8710 oh        1 MOL     -0.819258
    191 H87        -9.1650   -0.0210   -2.5860 ho        1 MOL      0.387042
    192 H88       -10.1040   -1.0790   -3.1300 ho        1 MOL      0.387042
    193 O31        -8.4650   -3.7710   -4.0770 oh        1 MOL     -0.819258
    194 H89        -7.9610   -3.9200   -4.8840 ho        1 MOL      0.387042
    195 H90        -9.3590   -4.0300   -4.2880 ho        1 MOL      0.387042
@<TRIPOS>BOND
     1    1    2 1   
     2    1    4 1   
     3    1    5 1   
     4    1    6 1   
     5    2    3 2   
     6    2    7 1   
     7    7    8 1   
     8    7   15 1   
     9    8    9 1   
    10    8   11 1   
    11    8   16 1   
    12    9   10 2   
    13    9   19 1   
    14   11   12 1   
    15   11   17 1   
    16   11   18 1   
    17   12   13 1   
    18   12   14 1   
    19   19   20 1   
    20   19   27 1   
    21   20   21 1   
    22   20   23 1   
    23   20   28 1   
    24   21   22 2   
    25   21   38 1   
    26   23   24 1   
    27   23   25 1   
    28   23   29 1   
    29   24   26 1   
    30   24   30 1   
    31   24   31 1   
    32   25   32 1   
    33   25   33 1   
    34   25   34 1   
    35   26   35 1   
    36   26   36 1   
    37   26   37 1   
    38   38   39 1   
    39   38   46 1   
    40   39   40 1   
    41   39   42 1   
    42   39   47 1   
    43   40   41 2   
    44   40   50 1   
    45   42   43 1   
    46   42   48 1   
    47   42   49 1   
    48   43   44 1   
    49   43   45 1   
    50   50   51 1   
    51   50   54 1   
    52   51   52 1   
    53   51   55 1   
    54   51   56 1   
    55   52   53 2   
    56   52   57 1   
    57   57   58 1   
    58   57   65 1   
    59   58   59 1   
    60   58   61 1   
    61   58   66 1   
    62   59   60 2   
    63   59   69 1   
    64   61   62 1   
    65   61   67 1   
    66   61   68 1   
    67   62   63 1   
    68   62   64 1   
    69   69   70 1   
    70   69   73 1   
    71   70   71 1   
    72   70   74 1   
    73   70   75 1   
    74   71   72 2   
    75   71   76 1   
    76   76   77 1   
    77   76   85 1   
    78   77   78 1   
    79   77   80 1   
    80   77   86 1   
    81   78   79 2   
    82   78   93 1   
    83   80   81 1   
    84   80   87 1   
    85   80   88 1   
    86   81   82 1   
    87   81   89 1   
    88   81   90 1   
    89   82   83 1   
    90   82   84 2   
    91   83   91 1   
    92   83   92 1   
    93   93   94 1   
    94   93  100 1   
    95   94   95 1   
    96   94   97 1   
    97   94  101 1   
    98   95   96 2   
    99   95  109 1   
   100   97   98 1   
   101   97   99 1   
   102   97  102 1   
   103   98  103 1   
   104   98  104 1   
   105   98  105 1   
   106   99  106 1   
   107   99  107 1   
   108   99  108 1   
   109  109  110 1   
   110  109  117 1   
   111  110  111 1   
   112  110  113 1   
   113  110  118 1   
   114  111  112 2   
   115  111  123 1   
   116  113  114 1   
   117  113  119 1   
   118  113  120 1   
   119  114  115 1   
   120  114  116 2   
   121  115  121 1   
   122  115  122 1   
   123  123  124 1   
   124  123  135 1   
   125  124  125 1   
   126  124  127 1   
   127  124  136 1   
   128  125  126 2   
   129  125  144 1   
   130  127  128 1   
   131  127  137 1   
   132  127  138 1   
   133  128  129 ar  
   134  128  130 ar  
   135  129  131 ar  
   136  129  139 1   
   137  130  132 ar  
   138  130  140 1   
   139  131  133 ar  
   140  131  141 1   
   141  132  133 ar  
   142  132  142 1   
   143  133  134 1   
   144  134  143 1   
   145  144  145 1   
   146  144  153 1   
   147  145  146 1   
   148  145  148 1   
   149  145  154 1   
   150  146  147 2   
   151  146  159 1   
   152  148  149 1   
   153  148  155 1   
   154  148  156 1   
   155  149  150 1   
   156  149  157 1   
   157  149  158 1   
   158  150  151 1   
   159  150  152 1   
   160  159  160 1   
   161  159  168 1   
   162  160  161 1   
   163  160  163 1   
   164  160  169 1   
   165  161  162 2   
   166  161  174 1   
   167  163  164 1   
   168  163  170 1   
   169  163  171 1   
   170  164  165 1   
   171  164  172 1   
   172  164  173 1   
   173  165  166 1   
   174  165  167 1   
   175  174  175 1   
   176  174  179 1   
   177  175  176 1   
   178  175  177 1   
   179  175  178 1   
   180  181  182 1   
   181  181  183 1   
   182  184  185 1   
   183  184  186 1   
   184  187  188 1   
   185  187  189 1   
   186  190  191 1   
   187  190  192 1   
   188  193  194 1   
   189  193  195 1   
@<TRIPOS>SUBSTRUCTURE
     1 MOL         1 TEMP              0 ****  ****    0 ROOT
