@<TRIPOS>MOLECULE
MOL
  195   189     1     0     0
SMALL
resp


@<TRIPOS>ATOM
      1 C1          0.9900    4.4350    3.3790 c3        1 MOL     -0.403397
      2 C2          0.2900    4.2870    2.0320 c         1 MOL      0.778472
      3 O1         -0.1600    3.2150    1.6670 o         1 MOL     -0.500177
      4 H1          0.6060    3.6850    4.0720 hc        1 MOL      0.091424
      5 H2          2.0630    4.2930    3.2500 hc        1 MOL      0.091424
      6 H3          0.8000    5.4300    3.7800 hc        1 MOL      0.091424
      7 N1          0.3910    5.3400    1.2180 n         1 MOL     -0.603142
      8 C3         -0.1610    5.4980   -0.0630 c3        1 MOL     -0.009475
      9 C4         -1.6540    5.2220   -0.1600 c         1 MOL      0.531172
     10 O2         -2.2100    4.9400   -1.2410 o         1 MOL     -0.499336
     11 C5          0.7460    4.9880   -1.1250 c3        1 MOL     -0.079971
     12 C6          2.2510    5.2770   -0.9800 c         1 MOL      0.613027
     13 O3          2.7390    6.2670   -1.5800 o         1 MOL     -0.696834
     14 O4          2.9680    4.6530   -0.1790 o         1 MOL     -0.696834
     15 H4          0.9440    6.1300    1.5430 hn        1 MOL      0.288264
     16 H5         -0.1180    6.5810   -0.1960 h1        1 MOL      0.100620
     17 H6          0.2940    5.2050   -2.0900 hc        1 MOL      0.058217
     18 H7          0.6720    3.9000   -1.0260 hc        1 MOL      0.058217
     19 N2         -2.4250    5.3980    0.9370 n         1 MOL     -0.413141
     20 C7         -3.8330    5.3090    0.8770 c3        1 MOL     -0.096925
     21 C8         -4.5220    6.2390   -0.0860 c         1 MOL      0.532248
     22 O5         -3.9340    7.2390   -0.4800 o         1 MOL     -0.584275
     23 C9         -4.3570    5.3300    2.3440 c3        1 MOL      0.028364
     24 C10        -4.4560    6.7410    2.8100 c3        1 MOL      0.430633
     25 C11        -3.5370    4.4500    3.3450 c3        1 MOL     -0.387647
     26 C12        -5.0860    6.8010    4.2130 c3        1 MOL     -0.311676
     27 H8         -1.9630    5.2970    1.8360 hn        1 MOL      0.256439
     28 H9         -4.0610    4.3110    0.4960 h1        1 MOL      0.132736
     29 H10        -5.3800    4.9550    2.3010 hc        1 MOL      0.083914
     30 H11        -5.0130    7.3590    2.1050 hc        1 MOL     -0.109063
     31 H12        -3.4670    7.2060    2.8230 hc        1 MOL     -0.109063
     32 H13        -4.1320    4.1010    4.1930 hc        1 MOL      0.085699
     33 H14        -3.1640    3.5840    2.8020 hc        1 MOL      0.085699
     34 H15        -2.5880    4.8320    3.6960 hc        1 MOL      0.085699
     35 H16        -6.0550    6.3000    4.2670 hc        1 MOL      0.056150
     36 H17        -4.4960    6.3940    5.0350 hc        1 MOL      0.056150
     37 H18        -5.2810    7.8450    4.4490 hc        1 MOL      0.056150
     38 N3         -5.7360    6.0120   -0.5730 n         1 MOL     -0.340838
     39 C13        -6.6430    4.9360   -0.2660 c3        1 MOL      0.004626
     40 C14        -6.1500    3.5080   -0.7250 c         1 MOL      0.559542
     41 O6         -6.5680    2.5220   -0.0770 o         1 MOL     -0.486903
     42 C15        -7.9720    5.1880   -0.9760 c3        1 MOL      0.071293
     43 C16        -9.0870    4.6620   -0.1280 c         1 MOL      0.510185
     44 O7         -8.9850    4.8660    1.1050 o         1 MOL     -0.641000
     45 O8         -9.8240    3.8000   -0.6200 o         1 MOL     -0.641000
     46 H19        -5.9270    6.5910   -1.3800 hn        1 MOL      0.222958
     47 H20        -6.7600    5.0720    0.8020 h1        1 MOL     -0.013359
     48 H21        -8.0850    4.7950   -1.9860 hc        1 MOL     -0.036927
     49 H22        -8.1200    6.2760   -0.9930 hc        1 MOL     -0.036927
     50 N4         -5.3560    3.4610   -1.8030 n         1 MOL     -0.426662
     51 C17        -4.6490    2.3330   -2.2480 c3        1 MOL     -0.003346
     52 C18        -5.5730    1.2300   -2.8820 c         1 MOL      0.449295
     53 O9         -6.6840    1.5520   -3.4030 o         1 MOL     -0.478700
     54 H23        -5.1820    4.3940   -2.1620 hn        1 MOL      0.265853
     55 H24        -4.1740    2.0100   -1.3270 h1        1 MOL      0.067083
     56 H25        -3.8650    2.6100   -2.9450 h1        1 MOL      0.067083
     57 N5         -4.9890   -0.0310   -2.8620 n         1 MOL     -0.456170
     58 C19        -5.8310   -1.1900   -3.4020 c3        1 MOL      0.071054
     59 C20        -6.7280   -1.9670   -2.3610 c         1 MOL      0.450669
     60 O10        -7.5550   -2.7440   -2.7730 o         1 MOL     -0.553946
     61 C21        -4.7720   -2.2190   -3.9420 c3        1 MOL     -0.189352
     62 C22        -3.5660   -2.4090   -3.0330 c         1 MOL      0.744280
     63 O11        -2.5150   -1.7680   -3.3580 o         1 MOL     -0.701251
     64 O12        -3.5970   -3.0840   -1.9790 o         1 MOL     -0.701251
     65 H26        -4.0070   -0.1850   -2.6520 hn        1 MOL      0.282598
     66 H27        -6.4900   -0.9000   -4.2230 h1        1 MOL      0.082751
     67 H28        -4.3240   -1.8530   -4.8620 hc        1 MOL      0.022101
     68 H29        -5.2270   -3.1930   -4.1160 hc        1 MOL      0.022101
     69 N6         -6.5650   -1.7310   -1.0660 n         1 MOL     -0.154081
     70 C23        -7.2380   -2.3980   -0.0210 c3        1 MOL     -0.238965
     71 C24        -6.5410   -3.6600    0.5210 c         1 MOL      0.503735
     72 O13        -6.8950   -4.1910    1.5680 o         1 MOL     -0.604191
     73 H30        -5.8660   -1.0830   -0.7450 hn        1 MOL      0.206147
     74 H31        -8.2700   -2.6100   -0.2920 h1        1 MOL      0.123966
     75 H32        -7.2550   -1.6740    0.7990 h1        1 MOL      0.123966
     76 N7         -5.5130   -4.1460   -0.1580 n         1 MOL     -0.035676
     77 C25        -4.7900   -5.3610    0.0050 c3        1 MOL      0.029590
     78 C26        -4.1070   -5.6670    1.3430 c         1 MOL      0.540973
     79 O14        -3.9950   -6.8070    1.7310 o         1 MOL     -0.522779
     80 C27        -5.6840   -6.5460   -0.5280 c3        1 MOL     -0.138577
     81 C28        -6.1740   -6.3730   -1.9840 c3        1 MOL     -0.013680
     82 C29        -6.8710   -7.6100   -2.5280 c         1 MOL      0.589405
     83 N8         -6.8640   -7.6990   -3.8710 n         1 MOL     -0.830164
     84 O15        -7.2880   -8.4970   -1.7590 o         1 MOL     -0.565544
     85 H33        -5.1760   -3.7670   -1.0280 hn        1 MOL      0.043103
     86 H34        -3.9560   -5.2920   -0.7020 h1        1 MOL      0.086132
     87 H35        -6.5800   -6.6950    0.0700 hc        1 MOL      0.061734
     88 H36        -5.0510   -7.4270   -0.4540 hc        1 MOL      0.061734
     89 H37        -5.3920   -6.1180   -2.7110 hc        1 MOL      0.035971
     90 H38        -6.9340   -5.5950   -1.9700 hc        1 MOL      0.035971
     91 H39        -6.4150   -6.9700   -4.4050 hn        1 MOL      0.367966
     92 H40        -7.1710   -8.5970   -4.2230 hn        1 MOL      0.367966
     93 N9         -3.6310   -4.6280    2.0500 n         1 MOL     -0.451727
     94 C30        -3.1200   -4.7540    3.4190 c3        1 MOL     -0.042874
     95 C31        -1.7640   -4.1180    3.6600 c         1 MOL      0.557107
     96 O16        -1.0270   -4.4060    4.5950 o         1 MOL     -0.578690
     97 C32        -4.1440   -4.1580    4.4450 c3        1 MOL      0.376477
     98 C33        -4.6840   -2.8250    3.9900 c3        1 MOL     -0.443761
     99 C34        -5.1750   -5.1580    4.9410 c3        1 MOL     -0.443761
    100 H41        -3.6000   -3.7350    1.5970 hn        1 MOL      0.215884
    101 H42        -3.0730   -5.8220    3.6550 h1        1 MOL      0.096219
    102 H43        -3.5020   -3.9440    5.2990 hc        1 MOL     -0.060908
    103 H44        -3.9110   -2.1390    3.6440 hc        1 MOL      0.107241
    104 H45        -5.3100   -2.9700    3.1110 hc        1 MOL      0.107241
    105 H46        -5.2620   -2.3970    4.8040 hc        1 MOL      0.107241
    106 H47        -5.6560   -4.6310    5.7570 hc        1 MOL      0.107241
    107 H48        -5.8430   -5.5200    4.1600 hc        1 MOL      0.107241
    108 H49        -4.6810   -6.0190    5.3790 hc        1 MOL      0.107241
    109 N10        -1.3980   -3.2090    2.7250 n         1 MOL     -0.527252
    110 C35        -0.0930   -2.5170    2.6590 c3        1 MOL      0.378935
    111 C36         0.6220   -2.8250    1.3480 c         1 MOL      0.529815
    112 O17         0.0880   -3.5180    0.4650 o         1 MOL     -0.541606
    113 C37        -0.2930   -0.9770    2.8860 c3        1 MOL     -0.219025
    114 C38         0.8160   -0.2390    3.5580 c         1 MOL      0.581970
    115 N11         0.7420    0.0910    4.8570 n         1 MOL     -0.774266
    116 O18         1.7840    0.0840    2.9480 o         1 MOL     -0.505355
    117 H50        -2.0760   -3.0440    2.0000 hn        1 MOL      0.304588
    118 H51         0.5410   -2.8090    3.4990 h1        1 MOL      0.017415
    119 H52        -1.1230   -0.9300    3.5960 hc        1 MOL      0.058585
    120 H53        -0.6170   -0.5180    1.9620 hc        1 MOL      0.058585
    121 H54        -0.0790   -0.1040    5.4220 hn        1 MOL      0.354578
    122 H55         1.5870    0.4730    5.2590 hn        1 MOL      0.354578
    123 N12         1.8820   -2.4440    1.2460 n         1 MOL     -0.673710
    124 C39         2.8200   -2.9250    0.2110 c3        1 MOL      0.232987
    125 C40         4.2780   -3.0630    0.7380 c         1 MOL      0.804159
    126 O19         4.6450   -2.2500    1.5060 o         1 MOL     -0.650559
    127 C41         2.7020   -2.0550   -1.0630 c3        1 MOL     -0.072809
    128 C42         3.2650   -2.5460   -2.4190 ca        1 MOL     -0.073946
    129 C43         4.4470   -1.9830   -2.8670 ca        1 MOL     -0.098125
    130 C44         2.6610   -3.7000   -3.0040 ca        1 MOL     -0.098125
    131 C45         5.1380   -2.5280   -4.0000 ca        1 MOL     -0.295193
    132 C46         3.3710   -4.3560   -4.0360 ca        1 MOL     -0.295193
    133 C47         4.5440   -3.7130   -4.6220 ca        1 MOL      0.343361
    134 O20         5.1500   -4.2710   -5.7040 oh        1 MOL     -0.496253
    135 H56         2.3020   -1.8820    1.9740 hn        1 MOL      0.311568
    136 H57         2.5650   -3.9440   -0.0580 h1        1 MOL      0.025463
    137 H58         2.9790   -1.0150   -0.8980 hc        1 MOL      0.083130
    138 H59         1.6340   -1.9350   -1.2520 hc        1 MOL      0.083130
    139 H60         4.8930   -1.1500   -2.3600 ha        1 MOL      0.162289
    140 H61         1.7730   -4.1530   -2.5890 ha        1 MOL      0.162289
    141 H62         6.0450   -2.0370   -4.3440 ha        1 MOL      0.156705
    142 H63         2.9770   -5.2240   -4.5280 ha        1 MOL      0.156705
    143 H64         5.9690   -3.7960   -5.8910 ho        1 MOL      0.363066
    144 N13         5.1250   -3.9630    0.1420 n         1 MOL     -0.980448
    145 C48         6.5940   -3.8890    0.3760 c3        1 MOL      0.640768
    146 C49         7.4250   -3.4850   -0.8890 c         1 MOL      0.399229
    147 O21         7.7240   -4.3610   -1.7200 o         1 MOL     -0.531689
    148 C50         7.0430   -5.3220    0.8580 c3        1 MOL     -0.026718
    149 C51         8.5130   -5.2980    1.3040 c3        1 MOL     -0.229308
    150 C52         8.9010   -6.6410    1.7400 c         1 MOL      0.750040
    151 O22         9.4830   -7.3860    0.9460 o         1 MOL     -0.706227
    152 O23         8.6760   -6.9340    2.9020 o         1 MOL     -0.706227
    153 H65         4.7960   -4.5240   -0.6340 hn        1 MOL      0.386385
    154 H66         6.9170   -3.2160    1.1710 h1        1 MOL     -0.062775
    155 H67         6.9130   -6.0770    0.0790 hc        1 MOL      0.013730
    156 H68         6.4380   -5.5010    1.7470 hc        1 MOL      0.013730
    157 H69         8.5620   -4.6010    2.1390 hc        1 MOL      0.035783
    158 H70         9.2050   -5.0350    0.5050 hc        1 MOL      0.035783
    159 N14         7.7530   -2.2250   -1.1590 n         1 MOL     -0.458032
    160 C53         7.2950   -1.0590   -0.4120 c3        1 MOL     -0.029572
    161 C54         8.0070   -0.9590    0.9460 c         1 MOL      0.458639
    162 O24         9.1810   -1.3190    1.0960 o         1 MOL     -0.523498
    163 C55         7.4860    0.2330   -1.1870 c3        1 MOL      0.277755
    164 C56         6.9520    1.4950   -0.5590 c3        1 MOL     -0.293264
    165 C57         7.2040    2.7680   -1.3450 c         1 MOL      0.610809
    166 O25         8.1090    2.8610   -2.1950 o         1 MOL     -0.624874
    167 O26         6.4600    3.7670   -1.1010 o         1 MOL     -0.624874
    168 H71         8.2240   -2.0260   -2.0370 hn        1 MOL      0.278752
    169 H72         6.2090   -1.2120   -0.3150 h1        1 MOL     -0.023992
    170 H73         6.9840    0.0610   -2.1460 hc        1 MOL     -0.038258
    171 H74         8.5470    0.3590   -1.3810 hc        1 MOL     -0.038258
    172 H75         7.1730    1.6300    0.4960 hc        1 MOL      0.024721
    173 H76         5.8730    1.3380   -0.6180 hc        1 MOL      0.024721
    174 N15         7.1690   -0.5560    1.9710 n         1 MOL     -0.120060
    175 C58         7.5310   -0.0760    3.3930 c3        1 MOL     -0.390882
    176 H77         7.1900   -0.8110    4.1220 h1        1 MOL      0.136619
    177 H78         8.6120    0.0400    3.4730 h1        1 MOL      0.136619
    178 H79         7.0460    0.8810    3.5880 h1        1 MOL      0.136619
    179 H80         6.2530   -0.1810    1.7690 hn        1 MOL      0.269286
    180 Ca1         5.2010    5.8080   -0.6110 Ca        1 MOL      1.632990
    181 O27         5.1120    8.4410   -1.4530 oh        1 MOL     -0.770047
    182 H81         4.5980    9.1790   -1.7710 ho        1 MOL      0.357459
    183 H82         6.0210    8.7200   -1.5460 ho        1 MOL      0.357459
    184 O28         7.1220    7.5050    0.7710 oh        1 MOL     -0.770047
    185 H83         7.7960    7.9530    0.2580 ho        1 MOL      0.357459
    186 H84         6.7210    8.1870    1.3060 ho        1 MOL      0.357459
    187 O29         5.7230    4.6780    1.7210 oh        1 MOL     -0.770047
    188 H85         5.8480    5.1920    2.5200 ho        1 MOL      0.357459
    189 H86         5.6190    3.7730    2.0230 ho        1 MOL      0.357459
    190 O30         4.4050    5.2420   -3.5780 oh        1 MOL     -0.770047
    191 H87         3.6220    5.7670   -3.4000 ho        1 MOL      0.357459
    192 H88         4.4300    5.1710   -4.5360 ho        1 MOL      0.357459
    193 O31         7.2470    6.5560   -2.4540 oh        1 MOL     -0.770047
    194 H89         7.3120    7.3590   -2.9770 ho        1 MOL      0.357459
    195 H90         8.1380    6.3900   -2.1620 ho        1 MOL      0.357459
@<TRIPOS>BOND
     1    1    2 1   
     2    1    4 1   
     3    1    5 1   
     4    1    6 1   
     5    2    3 2   
     6    2    7 1   
     7    7    8 1   
     8    7   15 1   
     9    8    9 1   
    10    8   11 1   
    11    8   16 1   
    12    9   10 2   
    13    9   19 1   
    14   11   12 1   
    15   11   17 1   
    16   11   18 1   
    17   12   13 1   
    18   12   14 1   
    19   19   20 1   
    20   19   27 1   
    21   20   21 1   
    22   20   23 1   
    23   20   28 1   
    24   21   22 2   
    25   21   38 1   
    26   23   24 1   
    27   23   25 1   
    28   23   29 1   
    29   24   26 1   
    30   24   30 1   
    31   24   31 1   
    32   25   32 1   
    33   25   33 1   
    34   25   34 1   
    35   26   35 1   
    36   26   36 1   
    37   26   37 1   
    38   38   39 1   
    39   38   46 1   
    40   39   40 1   
    41   39   42 1   
    42   39   47 1   
    43   40   41 2   
    44   40   50 1   
    45   42   43 1   
    46   42   48 1   
    47   42   49 1   
    48   43   44 1   
    49   43   45 1   
    50   50   51 1   
    51   50   54 1   
    52   51   52 1   
    53   51   55 1   
    54   51   56 1   
    55   52   53 2   
    56   52   57 1   
    57   57   58 1   
    58   57   65 1   
    59   58   59 1   
    60   58   61 1   
    61   58   66 1   
    62   59   60 2   
    63   59   69 1   
    64   61   62 1   
    65   61   67 1   
    66   61   68 1   
    67   62   63 1   
    68   62   64 1   
    69   69   70 1   
    70   69   73 1   
    71   70   71 1   
    72   70   74 1   
    73   70   75 1   
    74   71   72 2   
    75   71   76 1   
    76   76   77 1   
    77   76   85 1   
    78   77   78 1   
    79   77   80 1   
    80   77   86 1   
    81   78   79 2   
    82   78   93 1   
    83   80   81 1   
    84   80   87 1   
    85   80   88 1   
    86   81   82 1   
    87   81   89 1   
    88   81   90 1   
    89   82   83 1   
    90   82   84 2   
    91   83   91 1   
    92   83   92 1   
    93   93   94 1   
    94   93  100 1   
    95   94   95 1   
    96   94   97 1   
    97   94  101 1   
    98   95   96 2   
    99   95  109 1   
   100   97   98 1   
   101   97   99 1   
   102   97  102 1   
   103   98  103 1   
   104   98  104 1   
   105   98  105 1   
   106   99  106 1   
   107   99  107 1   
   108   99  108 1   
   109  109  110 1   
   110  109  117 1   
   111  110  111 1   
   112  110  113 1   
   113  110  118 1   
   114  111  112 2   
   115  111  123 1   
   116  113  114 1   
   117  113  119 1   
   118  113  120 1   
   119  114  115 1   
   120  114  116 2   
   121  115  121 1   
   122  115  122 1   
   123  123  124 1   
   124  123  135 1   
   125  124  125 1   
   126  124  127 1   
   127  124  136 1   
   128  125  126 2   
   129  125  144 1   
   130  127  128 1   
   131  127  137 1   
   132  127  138 1   
   133  128  129 ar  
   134  128  130 ar  
   135  129  131 ar  
   136  129  139 1   
   137  130  132 ar  
   138  130  140 1   
   139  131  133 ar  
   140  131  141 1   
   141  132  133 ar  
   142  132  142 1   
   143  133  134 1   
   144  134  143 1   
   145  144  145 1   
   146  144  153 1   
   147  145  146 1   
   148  145  148 1   
   149  145  154 1   
   150  146  147 2   
   151  146  159 1   
   152  148  149 1   
   153  148  155 1   
   154  148  156 1   
   155  149  150 1   
   156  149  157 1   
   157  149  158 1   
   158  150  151 1   
   159  150  152 1   
   160  159  160 1   
   161  159  168 1   
   162  160  161 1   
   163  160  163 1   
   164  160  169 1   
   165  161  162 2   
   166  161  174 1   
   167  163  164 1   
   168  163  170 1   
   169  163  171 1   
   170  164  165 1   
   171  164  172 1   
   172  164  173 1   
   173  165  166 1   
   174  165  167 1   
   175  174  175 1   
   176  174  179 1   
   177  175  176 1   
   178  175  177 1   
   179  175  178 1   
   180  181  182 1   
   181  181  183 1   
   182  184  185 1   
   183  184  186 1   
   184  187  188 1   
   185  187  189 1   
   186  190  191 1   
   187  190  192 1   
   188  193  194 1   
   189  193  195 1   
@<TRIPOS>SUBSTRUCTURE
     1 MOL         1 TEMP              0 ****  ****    0 ROOT
