@<TRIPOS>MOLECULE
MOL
  181   177     1     0     0
SMALL
resp


@<TRIPOS>ATOM
      1 C1          3.3930   -2.7100    4.5780 c3        1 MOL     -0.382682
      2 C2          4.4610   -1.8660    4.0480 c         1 MOL      0.591432
      3 O1          4.2810   -0.7330    3.5350 o         1 MOL     -0.564418
      4 H1          3.8040   -3.6770    4.8670 hc        1 MOL      0.107044
      5 H2          2.9490   -2.2300    5.4500 hc        1 MOL      0.107044
      6 H3          2.6300   -2.8540    3.8130 hc        1 MOL      0.107044
      7 N1          5.7250   -2.4140    4.0690 n         1 MOL     -0.413262
      8 C3          6.9440   -1.8820    3.4750 c3        1 MOL      0.027511
      9 C4          6.8680   -1.7260    1.9410 c         1 MOL      0.496581
     10 O2          6.1390   -2.3670    1.2940 o         1 MOL     -0.379359
     11 C5          8.1550   -2.6990    3.9510 c3        1 MOL     -0.168718
     12 C6          7.9710   -4.2120    3.8170 c         1 MOL      0.679977
     13 O3          8.1490   -4.8010    2.6960 o         1 MOL     -0.709305
     14 O4          7.6120   -4.7480    4.8640 o         1 MOL     -0.709305
     15 H4          5.8040   -3.2360    4.6450 hn        1 MOL      0.266396
     16 H5          7.0540   -0.8700    3.8800 h1        1 MOL      0.037312
     17 H6          8.2900   -2.4400    5.0050 hc        1 MOL      0.012200
     18 H7          9.1070   -2.4220    3.5000 hc        1 MOL      0.012200
     19 N2          7.6410   -0.7570    1.4310 n         1 MOL     -0.610243
     20 C7          7.8160   -0.5380    0.0090 c3        1 MOL      0.442312
     21 C8          6.4650   -0.1760   -0.6690 c         1 MOL      0.227512
     22 O5          5.5090    0.3410   -0.0990 o         1 MOL     -0.441564
     23 C9          8.9750    0.5190   -0.2810 c3        1 MOL     -0.244429
     24 H8          8.3310   -0.3580    2.0530 hn        1 MOL      0.290736
     25 H9          8.1520   -1.4810   -0.4120 h1        1 MOL     -0.010818
     26 H10         8.8190    1.4380    0.2890 hc        1 MOL      0.054249
     27 H11         9.9660    0.1400   -0.0170 hc        1 MOL      0.054249
     28 H12         8.9930    0.6220   -1.3650 hc        1 MOL      0.054249
     29 N3          6.4530   -0.4790   -1.9960 n         1 MOL     -0.203800
     30 C10         5.3810    0.0010   -2.9270 c3        1 MOL     -0.007881
     31 C11         5.7670    1.3350   -3.5050 c         1 MOL      0.615684
     32 O6          6.8940    1.4980   -3.9340 o         1 MOL     -0.562260
     33 C12         5.1300   -0.9760   -4.0430 c3        1 MOL     -0.242875
     34 C13         4.9630   -2.4130   -3.4670 c         1 MOL      0.609413
     35 O7          4.0840   -2.7120   -2.6660 o         1 MOL     -0.673040
     36 O8          5.7830   -3.3170   -3.7510 o         1 MOL     -0.673040
     37 H13         7.3170   -0.7740   -2.4350 hn        1 MOL      0.236373
     38 H14         4.4250    0.0540   -2.4130 h1        1 MOL      0.041947
     39 H15         5.9290   -0.8900   -4.7880 hc        1 MOL      0.037393
     40 H16         4.2190   -0.7350   -4.5890 hc        1 MOL      0.037393
     41 N4          4.8180    2.2740   -3.5020 n         1 MOL     -0.391243
     42 C14         4.6860    3.5210   -4.2100 c3        1 MOL      0.038406
     43 C15         3.9700    4.6460   -3.4660 c         1 MOL      0.520956
     44 O9          4.5830    5.1620   -2.5540 o         1 MOL     -0.513005
     45 H17         3.9290    2.1220   -3.0580 hn        1 MOL      0.273219
     46 H18         4.2330    3.4170   -5.2020 h1        1 MOL      0.020943
     47 H19         5.6880    3.9260   -4.3930 h1        1 MOL      0.020943
     48 N5          2.7010    4.8870   -3.7380 n         1 MOL     -0.385006
     49 C16         1.8460    5.7670   -2.9840 c3        1 MOL     -0.108743
     50 C17         1.5260    5.3960   -1.5180 c         1 MOL      0.586147
     51 O10         1.3440    4.2070   -1.3640 o         1 MOL     -0.468193
     52 C18         0.5520    5.8880   -3.7350 c3        1 MOL     -0.187801
     53 C19         0.5230    6.7340   -4.9660 c         1 MOL      0.721712
     54 N6         -0.6020    6.7560   -5.6500 n         1 MOL     -0.844593
     55 O11         1.5290    7.1830   -5.3920 o         1 MOL     -0.555795
     56 H20         2.3480    4.1960   -4.3850 hn        1 MOL      0.295457
     57 H21         2.2490    6.7800   -2.9130 h1        1 MOL      0.075240
     58 H22        -0.2790    6.2240   -3.1150 hc        1 MOL      0.075257
     59 H23         0.2400    4.9060   -4.0950 hc        1 MOL      0.075257
     60 H24        -1.4450    6.2490   -5.4040 hn        1 MOL      0.362781
     61 H25        -0.6720    7.3010   -6.4960 hn        1 MOL      0.362781
     62 N7          1.3480    6.2590   -0.5480 n         1 MOL     -0.385542
     63 C20         1.0690    6.0330    0.8280 c3        1 MOL     -0.228531
     64 C21        -0.4020    6.0290    1.1420 c         1 MOL      0.579653
     65 O12        -1.2350    5.6190    0.3220 o         1 MOL     -0.495436
     66 H26         1.4120    7.2330   -0.7990 hn        1 MOL      0.271205
     67 H27         1.5740    6.7560    1.4580 h1        1 MOL      0.138683
     68 H28         1.5120    5.0420    0.9650 h1        1 MOL      0.138683
     69 N8         -0.7690    6.4560    2.3300 n         1 MOL     -0.358076
     70 C22        -2.1780    6.5020    2.7400 c3        1 MOL     -0.340853
     71 C23        -2.9320    5.2320    3.0670 c         1 MOL      0.638883
     72 O13        -4.1760    5.2510    3.2040 o         1 MOL     -0.599202
     73 C24        -2.3050    7.3550    4.0760 c3        1 MOL      0.531299
     74 C25        -1.6760    6.7350    5.3630 c3        1 MOL     -0.459664
     75 O14        -1.7250    8.6480    3.9050 oh        1 MOL     -0.670395
     76 H29        -0.0550    6.8800    2.9130 hn        1 MOL      0.238896
     77 H30        -2.7570    7.0830    2.0220 h1        1 MOL      0.154408
     78 H31        -3.3850    7.4660    4.2180 h1        1 MOL      0.020857
     79 H32        -0.7880    8.5530    3.7740 ho        1 MOL      0.395253
     80 H33        -1.7240    7.4130    6.2170 hc        1 MOL      0.115114
     81 H34        -2.4010    5.9590    5.6430 hc        1 MOL      0.115114
     82 H35        -0.6790    6.3330    5.1760 hc        1 MOL      0.115114
     83 N9         -2.1990    4.1750    3.2420 n         1 MOL     -0.317194
     84 C26        -2.6160    2.7820    3.3550 c3        1 MOL     -0.047096
     85 C27        -1.8940    1.9960    2.2440 c         1 MOL      0.582964
     86 O15        -0.8250    2.4340    1.7520 o         1 MOL     -0.512375
     87 C28        -2.4460    2.1930    4.8130 c3        1 MOL      0.194054
     88 C29        -3.3330    2.9670    5.8840 c3        1 MOL     -0.061869
     89 C30        -2.3800    0.6650    4.8040 c3        1 MOL     -0.215784
     90 C31        -2.7040    2.8900    7.3050 c3        1 MOL     -0.030770
     91 H36        -1.2110    4.1640    3.0210 hn        1 MOL      0.181259
     92 H37        -3.6570    2.7840    3.0480 h1        1 MOL      0.047392
     93 H38        -1.4100    2.4570    5.0320 hc        1 MOL      0.001628
     94 H39        -4.2840    2.4370    5.8770 hc        1 MOL      0.006131
     95 H40        -3.4500    4.0260    5.6460 hc        1 MOL      0.006131
     96 H41        -3.3080    0.3720    4.3100 hc        1 MOL      0.047910
     97 H42        -1.5690    0.2520    4.2110 hc        1 MOL      0.047910
     98 H43        -2.2280    0.3450    5.8350 hc        1 MOL      0.047910
     99 H44        -3.0900    3.6340    8.0100 hc        1 MOL      0.009418
    100 H45        -2.7040    1.9310    7.8100 hc        1 MOL      0.009418
    101 H46        -1.6900    3.2810    7.2010 hc        1 MOL      0.009418
    102 N10        -2.4510    0.9130    1.7420 n         1 MOL     -0.464528
    103 C32        -1.9340    0.0950    0.6370 c3        1 MOL      0.115384
    104 C33        -3.1250   -0.4080   -0.2030 c         1 MOL      0.538489
    105 O16        -3.0420   -1.4010   -0.9010 o         1 MOL     -0.467227
    106 C34        -1.1250   -1.0670    1.2640 c3        1 MOL     -0.091328
    107 C35        -0.1500   -1.8060    0.3410 c         1 MOL      0.808227
    108 O17         0.3860   -1.2260   -0.5980 o         1 MOL     -0.771081
    109 O18         0.2830   -2.9340    0.6380 o         1 MOL     -0.771081
    110 H47        -3.2960    0.5640    2.1750 hn        1 MOL      0.266377
    111 H48        -1.2860    0.6660   -0.0320 h1        1 MOL      0.076286
    112 H49        -1.8270   -1.7890    1.6690 hc        1 MOL      0.030096
    113 H50        -0.6060   -0.7080    2.1500 hc        1 MOL      0.030096
    114 N11        -4.2510    0.3180   -0.2310 n         1 MOL     -0.557404
    115 C36        -5.4440   -0.1440   -0.9380 c3        1 MOL      0.331779
    116 C37        -5.8900   -1.5910   -0.4830 c         1 MOL      0.195265
    117 O19        -6.0190   -1.7730    0.7340 o         1 MOL     -0.499658
    118 C38        -6.5520    0.9570   -0.8130 c3        1 MOL     -0.329106
    119 C39        -7.6940    0.6110   -1.7250 ca        1 MOL      0.154604
    120 C40        -7.7170    1.1420   -3.0590 ca        1 MOL     -0.218855
    121 C41        -8.6720   -0.3210   -1.3700 ca        1 MOL     -0.218855
    122 C42        -8.6860    0.7200   -4.0180 ca        1 MOL     -0.094185
    123 C43        -9.7270   -0.6190   -2.3000 ca        1 MOL     -0.094185
    124 C44        -9.6470   -0.1740   -3.6350 ca        1 MOL     -0.110907
    125 H51        -4.2770    1.2390    0.1820 hn        1 MOL      0.273388
    126 H52        -5.1880   -0.2500   -1.9870 h1        1 MOL     -0.009427
    127 H53        -6.1670    1.9380   -1.0940 hc        1 MOL      0.123288
    128 H54        -6.8940    0.8970    0.2220 hc        1 MOL      0.123288
    129 H55        -6.9340    1.8230   -3.3400 ha        1 MOL      0.136192
    130 H56        -8.6280   -0.8730   -0.4470 ha        1 MOL      0.136192
    131 H57        -8.5800    1.1440   -5.0010 ha        1 MOL      0.107677
    132 H58       -10.5930   -1.1840   -1.9900 ha        1 MOL      0.107677
    133 H59       -10.4760   -0.2670   -4.3240 ha        1 MOL      0.091856
    134 N12        -6.2180   -2.5080   -1.4020 n         1 MOL      0.241303
    135 C45        -6.8120   -3.8240   -1.1660 c3        1 MOL      0.070517
    136 C46        -5.9900   -4.6910   -0.2310 c         1 MOL      0.264404
    137 O20        -6.4690   -5.7130    0.1890 o         1 MOL     -0.507731
    138 C47        -7.0800   -4.4180   -2.5000 c3        1 MOL     -0.092266
    139 C48        -6.1130   -3.7340   -3.4280 c3        1 MOL      0.111080
    140 C49        -6.0040   -2.3920   -2.8240 c3        1 MOL     -0.635966
    141 H60        -7.7180   -3.5780   -0.6120 h1        1 MOL      0.029405
    142 H61        -7.0660   -5.5000   -2.5020 hc        1 MOL      0.037695
    143 H62        -8.0310   -4.1150   -2.9450 hc        1 MOL      0.037695
    144 H63        -5.1660   -4.2650   -3.3800 hc        1 MOL      0.029484
    145 H64        -6.4320   -3.8100   -4.4670 hc        1 MOL      0.029484
    146 H65        -5.0250   -1.9910   -3.0740 h1        1 MOL      0.199551
    147 H66        -6.8970   -1.8560   -3.1610 h1        1 MOL      0.199551
    148 N13        -4.7170   -4.3790   -0.0440 n         1 MOL     -0.119619
    149 C50        -3.7800   -5.2920    0.5910 c3        1 MOL     -0.035139
    150 C51        -3.9080   -5.3350    2.0920 c         1 MOL      0.353694
    151 O21        -3.4130   -6.2210    2.7810 o         1 MOL     -0.527233
    152 C52        -2.4390   -4.8430    0.1620 c3        1 MOL      0.225239
    153 C53        -2.1530   -5.2560   -1.3370 c3        1 MOL     -0.302297
    154 C54        -0.7950   -4.7760   -1.6620 c         1 MOL      0.779411
    155 O22        -0.7350   -3.7660   -2.3410 o         1 MOL     -0.753833
    156 O23         0.2610   -5.3530   -1.3110 o         1 MOL     -0.753833
    157 H67        -4.3700   -3.7160   -0.7270 hn        1 MOL      0.233751
    158 H68        -3.9250   -6.3460    0.3730 h1        1 MOL      0.084464
    159 H69        -1.7160   -5.3150    0.8230 hc        1 MOL     -0.019404
    160 H70        -2.4200   -3.7570    0.2790 hc        1 MOL     -0.019404
    161 H71        -2.8450   -4.7070   -1.9760 hc        1 MOL      0.034967
    162 H72        -2.2320   -6.3160   -1.5400 hc        1 MOL      0.034967
    163 N14        -4.4680   -4.2840    2.6810 n         1 MOL     -0.098756
    164 C55        -4.5270   -4.0070    4.0940 c3        1 MOL     -0.284568
    165 H73        -5.4510   -3.4760    4.3220 h1        1 MOL      0.105541
    166 H74        -4.5010   -4.9450    4.6500 h1        1 MOL      0.105541
    167 H75        -3.6740   -3.3920    4.3800 h1        1 MOL      0.105541
    168 H76        -4.7740   -3.6020    2.0060 hn        1 MOL      0.139244
    169 Ca1         1.8490   -3.2290   -1.5270 Ca        1 MOL      1.747281
    170 O24         3.2960   -1.7990    0.1610 oh        1 MOL     -0.810083
    171 H77         4.2180   -1.8770    0.3860 ho        1 MOL      0.399543
    172 H78         3.0020   -1.0020    0.5830 ho        1 MOL      0.399543
    173 O25         1.4030   -2.3580   -4.0450 oh        1 MOL     -0.810083
    174 H79         1.8950   -2.8680   -4.6880 ho        1 MOL      0.399543
    175 H80         0.8600   -1.7680   -4.5660 ho        1 MOL      0.399543
    176 O26         3.1660   -4.9250    0.0570 oh        1 MOL     -0.810083
    177 H81         3.9140   -4.7570    0.6210 ho        1 MOL      0.399543
    178 H82         2.7360   -5.6840    0.4450 ho        1 MOL      0.399543
    179 O27         2.5240   -5.1920   -3.3390 oh        1 MOL     -0.810083
    180 H83         3.4580   -5.3590   -3.2780 ho        1 MOL      0.399543
    181 H84         2.1930   -5.8680   -3.9280 ho        1 MOL      0.399543
@<TRIPOS>BOND
     1    1    2 1   
     2    1    4 1   
     3    1    5 1   
     4    1    6 1   
     5    2    3 2   
     6    2    7 1   
     7    7    8 1   
     8    7   15 1   
     9    8    9 1   
    10    8   11 1   
    11    8   16 1   
    12    9   10 2   
    13    9   19 1   
    14   11   12 1   
    15   11   17 1   
    16   11   18 1   
    17   12   13 1   
    18   12   14 1   
    19   19   20 1   
    20   19   24 1   
    21   20   21 1   
    22   20   23 1   
    23   20   25 1   
    24   21   22 2   
    25   21   29 1   
    26   23   26 1   
    27   23   27 1   
    28   23   28 1   
    29   29   30 1   
    30   29   37 1   
    31   30   31 1   
    32   30   33 1   
    33   30   38 1   
    34   31   32 2   
    35   31   41 1   
    36   33   34 1   
    37   33   39 1   
    38   33   40 1   
    39   34   35 1   
    40   34   36 1   
    41   41   42 1   
    42   41   45 1   
    43   42   43 1   
    44   42   46 1   
    45   42   47 1   
    46   43   44 2   
    47   43   48 1   
    48   48   49 1   
    49   48   56 1   
    50   49   50 1   
    51   49   52 1   
    52   49   57 1   
    53   50   51 2   
    54   50   62 1   
    55   52   53 1   
    56   52   58 1   
    57   52   59 1   
    58   53   54 1   
    59   53   55 2   
    60   54   60 1   
    61   54   61 1   
    62   62   63 1   
    63   62   66 1   
    64   63   64 1   
    65   63   67 1   
    66   63   68 1   
    67   64   65 2   
    68   64   69 1   
    69   69   70 1   
    70   69   76 1   
    71   70   71 1   
    72   70   73 1   
    73   70   77 1   
    74   71   72 2   
    75   71   83 1   
    76   73   74 1   
    77   73   75 1   
    78   73   78 1   
    79   74   80 1   
    80   74   81 1   
    81   74   82 1   
    82   75   79 1   
    83   83   84 1   
    84   83   91 1   
    85   84   85 1   
    86   84   87 1   
    87   84   92 1   
    88   85   86 2   
    89   85  102 1   
    90   87   88 1   
    91   87   89 1   
    92   87   93 1   
    93   88   90 1   
    94   88   94 1   
    95   88   95 1   
    96   89   96 1   
    97   89   97 1   
    98   89   98 1   
    99   90   99 1   
   100   90  100 1   
   101   90  101 1   
   102  102  103 1   
   103  102  110 1   
   104  103  104 1   
   105  103  106 1   
   106  103  111 1   
   107  104  105 2   
   108  104  114 1   
   109  106  107 1   
   110  106  112 1   
   111  106  113 1   
   112  107  108 1   
   113  107  109 1   
   114  114  115 1   
   115  114  125 1   
   116  115  116 1   
   117  115  118 1   
   118  115  126 1   
   119  116  117 2   
   120  116  134 1   
   121  118  119 1   
   122  118  127 1   
   123  118  128 1   
   124  119  120 ar  
   125  119  121 ar  
   126  120  122 ar  
   127  120  129 1   
   128  121  123 ar  
   129  121  130 1   
   130  122  124 ar  
   131  122  131 1   
   132  123  124 ar  
   133  123  132 1   
   134  124  133 1   
   135  134  135 1   
   136  134  140 1   
   137  135  136 1   
   138  135  138 1   
   139  135  141 1   
   140  136  137 2   
   141  136  148 1   
   142  138  139 1   
   143  138  142 1   
   144  138  143 1   
   145  139  140 1   
   146  139  144 1   
   147  139  145 1   
   148  140  146 1   
   149  140  147 1   
   150  148  149 1   
   151  148  157 1   
   152  149  150 1   
   153  149  152 1   
   154  149  158 1   
   155  150  151 2   
   156  150  163 1   
   157  152  153 1   
   158  152  159 1   
   159  152  160 1   
   160  153  154 1   
   161  153  161 1   
   162  153  162 1   
   163  154  155 1   
   164  154  156 1   
   165  163  164 1   
   166  163  168 1   
   167  164  165 1   
   168  164  166 1   
   169  164  167 1   
   170  170  171 1   
   171  170  172 1   
   172  173  174 1   
   173  173  175 1   
   174  176  177 1   
   175  176  178 1   
   176  179  180 1   
   177  179  181 1   
@<TRIPOS>SUBSTRUCTURE
     1 MOL         1 TEMP              0 ****  ****    0 ROOT
