@<TRIPOS>MOLECULE
MOL
  178   175     1     0     0
SMALL
resp


@<TRIPOS>ATOM
      1 C1          2.5460   -2.6030    4.0330 c3        1 MOL     -0.204870
      2 C2          3.5880   -1.6440    3.4400 c         1 MOL      0.547901
      3 O1          3.8360   -1.7520    2.2530 o         1 MOL     -0.438172
      4 H1          2.0540   -2.1250    4.8800 hc        1 MOL      0.053760
      5 H2          1.8030   -2.8480    3.2730 hc        1 MOL      0.053760
      6 H3          3.0390   -3.5150    4.3670 hc        1 MOL      0.053760
      7 N1          4.4400   -0.9620    4.2400 n         1 MOL     -0.476347
      8 C3          5.4050    0.0420    3.7490 c3        1 MOL      0.160002
      9 C4          6.3490   -0.5450    2.7710 c         1 MOL      0.181091
     10 O2          6.6440    0.1070    1.7550 o         1 MOL     -0.354431
     11 C5          6.2270    0.6360    4.9280 c3        1 MOL     -0.312051
     12 C6          7.3100    1.6180    4.4570 c         1 MOL      0.743606
     13 O3          6.9710    2.7780    4.1010 o         1 MOL     -0.715016
     14 O4          8.4890    1.2570    4.3110 o         1 MOL     -0.715016
     15 H4          4.2450   -0.9880    5.2390 hn        1 MOL      0.271797
     16 H5          4.8250    0.8380    3.2750 h1        1 MOL      0.105576
     17 H6          6.7020   -0.1600    5.4980 hc        1 MOL      0.026363
     18 H7          5.5800    1.0960    5.6840 hc        1 MOL      0.026363
     19 N2          6.7440   -1.7890    3.0030 n         1 MOL     -0.197923
     20 C7          7.6150   -2.5670    2.1160 c3        1 MOL      0.120791
     21 C8          7.1340   -2.8140    0.6590 c         1 MOL      0.212592
     22 O5          7.9040   -3.1590   -0.2320 o         1 MOL     -0.463143
     23 C9          8.9670   -2.0020    2.2680 c3        1 MOL     -0.171557
     24 H8          6.4480   -2.2250    3.8610 hn        1 MOL      0.226022
     25 H9          7.6620   -3.5190    2.6620 h1        1 MOL      0.033962
     26 H10         9.7000   -2.4740    1.6110 hc        1 MOL      0.052936
     27 H11         8.9940   -0.9950    1.8480 hc        1 MOL      0.052936
     28 H12         9.3170   -2.1210    3.2910 hc        1 MOL      0.052936
     29 N3          5.8530   -2.6160    0.4110 n         1 MOL     -0.064743
     30 C10         5.1340   -2.6920   -0.9100 c3        1 MOL      0.361160
     31 C11         5.5830   -1.5670   -1.8100 c         1 MOL      0.159964
     32 O6          5.8690   -1.7620   -2.9910 o         1 MOL     -0.486393
     33 C12         5.1650   -4.1400   -1.4080 c3        1 MOL     -0.468663
     34 C13         3.8650   -4.6930   -1.9380 c         1 MOL      0.847141
     35 O7          2.8680   -4.0200   -2.0820 o         1 MOL     -0.727176
     36 O8          3.7990   -5.9240   -2.1300 o         1 MOL     -0.727176
     37 H13         5.2650   -2.3510    1.1870 hn        1 MOL      0.046818
     38 H14         4.0690   -2.6000   -0.6800 h1        1 MOL      0.020066
     39 H15         5.3090   -4.8180   -0.5670 hc        1 MOL      0.081994
     40 H16         5.9750   -4.3760   -2.1060 hc        1 MOL      0.081994
     41 N4          5.8080   -0.4060   -1.2400 n         1 MOL      0.104611
     42 C14         6.2630    0.8070   -1.9240 c3        1 MOL     -0.026805
     43 C15         5.2850    1.7190   -2.5940 c         1 MOL      0.570318
     44 O9          5.6940    2.6900   -3.1880 o         1 MOL     -0.572814
     45 H17         5.8890   -0.3780   -0.2320 hn        1 MOL      0.026864
     46 H18         7.0240    0.6330   -2.6870 h1        1 MOL      0.045646
     47 H19         6.7960    1.4050   -1.1750 h1        1 MOL      0.045646
     48 N5          3.9590    1.4720   -2.4860 n         1 MOL     -0.349052
     49 C16         2.8850    2.3490   -3.0530 c3        1 MOL      0.059058
     50 C17         2.8240    3.7540   -2.4310 c         1 MOL      0.567577
     51 O10         3.2380    3.9200   -1.3020 o         1 MOL     -0.494361
     52 C18         1.5470    1.6180   -2.8150 c3        1 MOL     -0.663070
     53 C19         1.4090    0.2460   -3.4490 c         1 MOL      0.933832
     54 N6          0.8100    0.0610   -4.5520 n         1 MOL     -0.932072
     55 O11         1.9460   -0.7280   -2.9110 o         1 MOL     -0.648457
     56 H20         3.6390    0.7690   -1.8240 hn        1 MOL      0.171988
     57 H21         3.0130    2.5580   -4.1140 h1        1 MOL      0.036024
     58 H22         0.7120    2.2170   -3.1540 hc        1 MOL      0.213177
     59 H23         1.4880    1.3830   -1.7490 hc        1 MOL      0.213177
     60 H24         0.3530    0.8840   -4.9190 hn        1 MOL      0.407342
     61 H25         0.8310   -0.8490   -4.9890 hn        1 MOL      0.407342
     62 N7          2.2760    4.6970   -3.1250 n         1 MOL     -0.444538
     63 C20         1.9840    6.0410   -2.5840 c3        1 MOL     -0.075750
     64 C21         0.5130    6.3800   -2.3990 c         1 MOL      0.649416
     65 O12        -0.3170    5.8820   -3.0980 o         1 MOL     -0.548563
     66 H26         1.9900    4.5040   -4.0790 hn        1 MOL      0.284365
     67 H27         2.2990    6.7760   -3.3200 h1        1 MOL      0.085479
     68 H28         2.5770    6.1640   -1.6770 h1        1 MOL      0.085479
     69 N8          0.1960    7.2030   -1.4080 n         1 MOL     -0.603553
     70 C22        -1.2150    7.5520   -1.0730 c3        1 MOL     -0.038723
     71 C23        -2.0860    6.4790   -0.4360 c         1 MOL      0.544039
     72 O13        -3.3300    6.5560   -0.3510 o         1 MOL     -0.560881
     73 C24        -1.0440    8.7470   -0.1360 c3        1 MOL      0.225457
     74 C25        -2.3430    9.3120    0.4050 c3        1 MOL     -0.435517
     75 O14        -0.2480    8.4220    0.9760 oh        1 MOL     -0.617613
     76 H29         0.9600    7.5870   -0.8710 hn        1 MOL      0.316542
     77 H30        -1.7630    7.8250   -1.9660 h1        1 MOL      0.137899
     78 H31        -0.4550    9.5100   -0.6390 h1        1 MOL      0.053204
     79 H32        -0.1850    9.1670    1.5820 ho        1 MOL      0.418329
     80 H33        -2.2040   10.2500    0.9560 hc        1 MOL      0.119772
     81 H34        -3.0080    9.5560   -0.4190 hc        1 MOL      0.119772
     82 H35        -2.7920    8.6950    1.1880 hc        1 MOL      0.119772
     83 N9         -1.4020    5.4050    0.0560 n         1 MOL     -0.391636
     84 C26        -1.9070    4.3030    0.9450 c3        1 MOL      0.166930
     85 C27        -1.5650    2.9820    0.2960 c         1 MOL      0.428127
     86 O15        -0.8280    2.8940   -0.6400 o         1 MOL     -0.402197
     87 C28        -1.2950    4.3360    2.3480 c3        1 MOL      0.121696
     88 C29         0.2000    3.9460    2.4530 c3        1 MOL     -0.098222
     89 C30        -1.6340    5.7160    2.9570 c3        1 MOL     -0.498246
     90 C31         1.0960    4.9320    1.7450 c3        1 MOL      0.199908
     91 H36        -0.3910    5.4670   -0.0630 hn        1 MOL      0.252342
     92 H37        -2.9840    4.4240    0.9550 h1        1 MOL      0.058292
     93 H38        -1.9360    3.6030    2.8450 hc        1 MOL     -0.036314
     94 H39         0.3670    2.9340    2.0850 hc        1 MOL      0.041291
     95 H40         0.4170    3.9820    3.5220 hc        1 MOL      0.041291
     96 H41        -1.0790    6.5610    2.5420 hc        1 MOL      0.128149
     97 H42        -2.6950    5.9220    2.8260 hc        1 MOL      0.128149
     98 H43        -1.1950    5.6940    3.9500 hc        1 MOL      0.128149
     99 H44         1.0210    4.9840    0.6590 hc        1 MOL     -0.028497
    100 H45         1.1470    5.8780    2.2760 hc        1 MOL     -0.028497
    101 H46         2.0880    4.5220    1.9650 hc        1 MOL     -0.028497
    102 N10        -2.2500    1.8650    0.6440 n         1 MOL     -0.564502
    103 C32        -2.2080    0.5560   -0.0640 c3        1 MOL      0.121932
    104 C33        -3.5780   -0.1850   -0.0670 c         1 MOL      0.398737
    105 O16        -3.6440   -1.4350   -0.3820 o         1 MOL     -0.446687
    106 C34        -1.0850   -0.3550    0.4720 c3        1 MOL     -0.173475
    107 C35        -0.4920   -1.2360   -0.6010 c         1 MOL      0.578662
    108 O17         0.5720   -1.8750   -0.4000 o         1 MOL     -0.689039
    109 O18        -0.9330   -1.2670   -1.7870 o         1 MOL     -0.689039
    110 H47        -2.9140    1.9930    1.3970 hn        1 MOL      0.276525
    111 H48        -1.9380    0.8500   -1.0720 h1        1 MOL      0.078358
    112 H49        -1.5420   -1.0520    1.1810 hc        1 MOL      0.088792
    113 H50        -0.3760    0.2900    1.0010 hc        1 MOL      0.088792
    114 N11        -4.7140    0.4910    0.2410 n         1 MOL     -0.242185
    115 C36        -6.1020    0.0200    0.1340 c3        1 MOL      0.086262
    116 C37        -6.2910   -1.2870    0.9630 c         1 MOL      0.329161
    117 O19        -6.0890   -1.2550    2.1880 o         1 MOL     -0.462689
    118 C38        -7.0800    1.0700    0.6840 c3        1 MOL     -0.273287
    119 C39        -8.5820    0.8190    0.3840 ca        1 MOL      0.134756
    120 C40        -9.2000    1.2460   -0.8270 ca        1 MOL     -0.183901
    121 C41        -9.3940    0.1380    1.2970 ca        1 MOL     -0.183901
    122 C42       -10.5210    1.0540   -1.1310 ca        1 MOL     -0.088720
    123 C43       -10.7540   -0.0310    0.9680 ca        1 MOL     -0.088720
    124 C44       -11.3400    0.4270   -0.1940 ca        1 MOL     -0.137987
    125 H51        -4.6940    1.4690    0.4980 hn        1 MOL      0.193102
    126 H52        -6.3240   -0.1920   -0.9090 h1        1 MOL      0.012317
    127 H53        -6.8840    2.0840    0.3420 hc        1 MOL      0.119104
    128 H54        -6.9920    1.0590    1.7770 hc        1 MOL      0.119104
    129 H55        -8.5880    1.6590   -1.6210 ha        1 MOL      0.129960
    130 H56        -9.1300   -0.3000    2.2490 ha        1 MOL      0.129960
    131 H57       -10.9100    1.2970   -2.1140 ha        1 MOL      0.101202
    132 H58       -11.3300   -0.6140    1.6720 ha        1 MOL      0.101202
    133 H59       -12.3340    0.1080   -0.4580 ha        1 MOL      0.107606
    134 N12        -6.5920   -2.4600    0.3270 n         1 MOL     -0.048542
    135 C45        -6.8510   -3.7310    0.9790 c3        1 MOL      0.004289
    136 C46        -5.5980   -4.1950    1.8110 c         1 MOL      0.234756
    137 O20        -5.7160   -5.0650    2.7380 o         1 MOL     -0.528432
    138 C47        -7.2140   -4.7690   -0.0810 c3        1 MOL     -0.060988
    139 C48        -6.7590   -4.1260   -1.4250 c3        1 MOL     -0.118107
    140 C49        -6.7770   -2.6010   -1.1190 c3        1 MOL     -0.102505
    141 H60        -7.6570   -3.5080    1.6750 h1        1 MOL      0.077865
    142 H61        -6.8680   -5.7870    0.0880 hc        1 MOL      0.059733
    143 H62        -8.2950   -4.9600   -0.0260 hc        1 MOL      0.059733
    144 H63        -5.7010   -4.2630   -1.6130 hc        1 MOL      0.055203
    145 H64        -7.3300   -4.4720   -2.2940 hc        1 MOL      0.055203
    146 H65        -6.0620   -2.0520   -1.7360 h1        1 MOL      0.080844
    147 H66        -7.7570   -2.2450   -1.4540 h1        1 MOL      0.080844
    148 N13        -4.4170   -3.7010    1.4660 n         1 MOL      0.137827
    149 C50        -3.1850   -3.9850    2.2000 c3        1 MOL     -0.385524
    150 C51        -2.9780   -3.0450    3.4180 c         1 MOL      0.464883
    151 O21        -2.0680   -3.3860    4.2120 o         1 MOL     -0.555017
    152 C52        -1.9480   -3.9830    1.2720 c3        1 MOL      0.071063
    153 C53        -1.9370   -5.2160    0.3490 c3        1 MOL     -0.162503
    154 C54        -1.0100   -4.9240   -0.8300 c         1 MOL      0.555456
    155 O22        -1.4970   -4.3200   -1.8260 o         1 MOL     -0.689179
    156 O23         0.2410   -5.0680   -0.8040 o         1 MOL     -0.689179
    157 H67        -4.3610   -2.9250    0.8050 hn        1 MOL      0.103668
    158 H68        -3.3500   -4.9830    2.5980 h1        1 MOL      0.164121
    159 H69        -1.0780   -3.9940    1.9210 hc        1 MOL      0.110501
    160 H70        -1.9440   -3.0750    0.6700 hc        1 MOL      0.110501
    161 H71        -2.9420   -5.5060    0.0640 hc        1 MOL      0.031609
    162 H72        -1.5320   -6.0620    0.9140 hc        1 MOL      0.031609
    163 N14        -3.6470   -1.9250    3.5430 n         1 MOL     -0.108246
    164 C55        -3.4110   -0.8520    4.5240 c3        1 MOL     -0.098415
    165 H73        -3.3690   -1.2800    5.5260 h1        1 MOL      0.053116
    166 H74        -2.4660   -0.3570    4.3010 h1        1 MOL      0.053116
    167 H75        -4.2230   -0.1270    4.4720 h1        1 MOL      0.053116
    168 H76        -4.3560   -1.7630    2.8360 hn        1 MOL      0.095330
    169 Ca1         0.7220   -3.1050   -2.6730 Ca        1 MOL      1.685677
    170 O24         1.7150   -2.7750   -5.2190 oh        1 MOL     -0.757925
    171 H77         2.6510   -2.9170   -5.1110 ho        1 MOL      0.372293
    172 H78         1.5720   -2.7570   -6.1640 ho        1 MOL      0.372293
    173 O25        -1.2420   -2.7600   -4.6240 oh        1 MOL     -0.757925
    174 H79        -1.5330   -3.3070   -5.3480 ho        1 MOL      0.372293
    175 H80        -2.0080   -2.6370   -4.0770 ho        1 MOL      0.372293
    176 O26         0.5910   -5.5580   -3.9180 oh        1 MOL     -0.757925
    177 H81         1.2220   -6.1560   -4.3270 ho        1 MOL      0.372293
    178 H82        -0.2290   -5.7320   -4.3760 ho        1 MOL      0.372293
@<TRIPOS>BOND
     1    1    2 1   
     2    1    4 1   
     3    1    5 1   
     4    1    6 1   
     5    2    3 2   
     6    2    7 1   
     7    7    8 1   
     8    7   15 1   
     9    8    9 1   
    10    8   11 1   
    11    8   16 1   
    12    9   10 2   
    13    9   19 1   
    14   11   12 1   
    15   11   17 1   
    16   11   18 1   
    17   12   13 1   
    18   12   14 1   
    19   19   20 1   
    20   19   24 1   
    21   20   21 1   
    22   20   23 1   
    23   20   25 1   
    24   21   22 2   
    25   21   29 1   
    26   23   26 1   
    27   23   27 1   
    28   23   28 1   
    29   29   30 1   
    30   29   37 1   
    31   30   31 1   
    32   30   33 1   
    33   30   38 1   
    34   31   32 2   
    35   31   41 1   
    36   33   34 1   
    37   33   39 1   
    38   33   40 1   
    39   34   35 1   
    40   34   36 1   
    41   41   42 1   
    42   41   45 1   
    43   42   43 1   
    44   42   46 1   
    45   42   47 1   
    46   43   44 2   
    47   43   48 1   
    48   48   49 1   
    49   48   56 1   
    50   49   50 1   
    51   49   52 1   
    52   49   57 1   
    53   50   51 2   
    54   50   62 1   
    55   52   53 1   
    56   52   58 1   
    57   52   59 1   
    58   53   54 1   
    59   53   55 2   
    60   54   60 1   
    61   54   61 1   
    62   62   63 1   
    63   62   66 1   
    64   63   64 1   
    65   63   67 1   
    66   63   68 1   
    67   64   65 2   
    68   64   69 1   
    69   69   70 1   
    70   69   76 1   
    71   70   71 1   
    72   70   73 1   
    73   70   77 1   
    74   71   72 2   
    75   71   83 1   
    76   73   74 1   
    77   73   75 1   
    78   73   78 1   
    79   74   80 1   
    80   74   81 1   
    81   74   82 1   
    82   75   79 1   
    83   83   84 1   
    84   83   91 1   
    85   84   85 1   
    86   84   87 1   
    87   84   92 1   
    88   85   86 2   
    89   85  102 1   
    90   87   88 1   
    91   87   89 1   
    92   87   93 1   
    93   88   90 1   
    94   88   94 1   
    95   88   95 1   
    96   89   96 1   
    97   89   97 1   
    98   89   98 1   
    99   90   99 1   
   100   90  100 1   
   101   90  101 1   
   102  102  103 1   
   103  102  110 1   
   104  103  104 1   
   105  103  106 1   
   106  103  111 1   
   107  104  105 2   
   108  104  114 1   
   109  106  107 1   
   110  106  112 1   
   111  106  113 1   
   112  107  108 1   
   113  107  109 1   
   114  114  115 1   
   115  114  125 1   
   116  115  116 1   
   117  115  118 1   
   118  115  126 1   
   119  116  117 2   
   120  116  134 1   
   121  118  119 1   
   122  118  127 1   
   123  118  128 1   
   124  119  120 ar  
   125  119  121 ar  
   126  120  122 ar  
   127  120  129 1   
   128  121  123 ar  
   129  121  130 1   
   130  122  124 ar  
   131  122  131 1   
   132  123  124 ar  
   133  123  132 1   
   134  124  133 1   
   135  134  135 1   
   136  134  140 1   
   137  135  136 1   
   138  135  138 1   
   139  135  141 1   
   140  136  137 2   
   141  136  148 1   
   142  138  139 1   
   143  138  142 1   
   144  138  143 1   
   145  139  140 1   
   146  139  144 1   
   147  139  145 1   
   148  140  146 1   
   149  140  147 1   
   150  148  149 1   
   151  148  157 1   
   152  149  150 1   
   153  149  152 1   
   154  149  158 1   
   155  150  151 2   
   156  150  163 1   
   157  152  153 1   
   158  152  159 1   
   159  152  160 1   
   160  153  154 1   
   161  153  161 1   
   162  153  162 1   
   163  154  155 1   
   164  154  156 1   
   165  163  164 1   
   166  163  168 1   
   167  164  165 1   
   168  164  166 1   
   169  164  167 1   
   170  170  171 1   
   171  170  172 1   
   172  173  174 1   
   173  173  175 1   
   174  176  177 1   
   175  176  178 1   
@<TRIPOS>SUBSTRUCTURE
     1 MOL         1 TEMP              0 ****  ****    0 ROOT
