@<TRIPOS>MOLECULE
MOL
  181   177     1     0     0
SMALL
resp


@<TRIPOS>ATOM
      1 C1          1.2790    6.5760   -2.5230 c3        1 MOL     -0.390264
      2 C2          2.5800    6.7660   -1.7470 c         1 MOL      0.731251
      3 O1          2.6630    7.4520   -0.7520 o         1 MOL     -0.600902
      4 H1          1.0950    7.4540   -3.1420 hc        1 MOL      0.095245
      5 H2          1.3600    5.6940   -3.1590 hc        1 MOL      0.095245
      6 H3          0.4530    6.4460   -1.8230 hc        1 MOL      0.095245
      7 N1          3.6810    6.1950   -2.2280 n         1 MOL     -0.584743
      8 C3          4.9360    6.1740   -1.5500 c3        1 MOL      0.188298
      9 C4          5.1040    4.9100   -0.6100 c         1 MOL      0.492404
     10 O2          5.0410    3.7130   -1.0550 o         1 MOL     -0.530508
     11 C5          6.0970    6.3620   -2.4520 c3        1 MOL     -0.221814
     12 C6          7.4070    6.0640   -1.7400 c         1 MOL      0.588972
     13 O3          7.9050    4.9010   -1.8210 o         1 MOL     -0.690457
     14 O4          7.7360    6.9140   -0.8920 o         1 MOL     -0.690457
     15 H4          3.6520    5.7180   -3.1130 hn        1 MOL      0.296763
     16 H5          4.9200    6.9340   -0.7630 h1        1 MOL      0.047444
     17 H6          6.0770    7.3920   -2.8030 hc        1 MOL      0.025933
     18 H7          5.9530    5.7160   -3.3090 hc        1 MOL      0.025933
     19 N2          5.2880    5.2060    0.6950 n         1 MOL     -0.389616
     20 C7          5.1030    4.1550    1.7920 c3        1 MOL      0.320440
     21 C8          3.6250    3.6130    2.0170 c         1 MOL      0.347097
     22 O5          2.7100    4.2990    1.4770 o         1 MOL     -0.530328
     23 C9          5.6130    4.8400    3.1380 c3        1 MOL     -0.359934
     24 H8          5.1650    6.1920    0.8850 hn        1 MOL      0.264709
     25 H9          5.7510    3.3030    1.5650 h1        1 MOL      0.038427
     26 H10         5.0460    5.7450    3.3140 hc        1 MOL      0.092424
     27 H11         5.5320    4.1350    3.9680 hc        1 MOL      0.092424
     28 H12         6.6440    5.1420    3.0060 hc        1 MOL      0.092424
     29 N3          3.3010    2.5110    2.6690 n         1 MOL     -0.320677
     30 C10         4.1650    1.4670    3.2680 c3        1 MOL      0.042451
     31 C11         4.3620    0.3270    2.2870 c         1 MOL      0.174707
     32 O6          3.4680   -0.0860    1.5990 o         1 MOL     -0.249931
     33 C12         3.5650    1.0380    4.5490 c3        1 MOL     -0.329314
     34 C13         2.0700    0.7330    4.3310 c         1 MOL      0.824138
     35 O7          1.6710   -0.2470    3.7090 o         1 MOL     -0.731292
     36 O8          1.1770    1.4540    4.8250 o         1 MOL     -0.731292
     37 H13         2.2970    2.3840    2.7260 hn        1 MOL      0.274183
     38 H14         5.1710    1.7980    3.5120 h1        1 MOL      0.086446
     39 H15         3.6190    1.8700    5.2440 hc        1 MOL      0.081667
     40 H16         4.1010    0.1450    4.8530 hc        1 MOL      0.081667
     41 N4          5.5220   -0.3370    2.3590 n         1 MOL     -0.289888
     42 C14         5.9660   -1.4250    1.5000 c3        1 MOL     -0.052552
     43 C15         6.2280   -1.0870    0.0400 c         1 MOL      0.540294
     44 O9          6.3050    0.1020   -0.2710 o         1 MOL     -0.478436
     45 H17         6.2880    0.0490    2.9010 hn        1 MOL      0.274453
     46 H18         5.1730   -2.1750    1.4570 h1        1 MOL      0.061503
     47 H19         6.8860   -1.7540    1.9700 h1        1 MOL      0.061503
     48 N5          6.3020   -1.9570   -0.9400 n         1 MOL     -0.531484
     49 C16         6.1600   -3.4160   -0.8430 c3        1 MOL      0.352423
     50 C17         5.2650   -3.9600   -2.0100 c         1 MOL      0.398373
     51 O10         5.2030   -3.2480   -3.0570 o         1 MOL     -0.488698
     52 C18         7.5400   -4.0400   -0.8090 c3        1 MOL     -0.340461
     53 C19         8.4440   -3.5320   -1.8480 c         1 MOL      0.712010
     54 N6          8.8650   -4.3360   -2.8120 n         1 MOL     -0.822015
     55 O11         8.8210   -2.3870   -1.8170 o         1 MOL     -0.507353
     56 H20         6.0090   -1.5180   -1.8020 hn        1 MOL      0.320818
     57 H21         5.6110   -3.6370    0.0710 h1        1 MOL     -0.022140
     58 H22         7.3420   -5.1090   -0.9090 hc        1 MOL      0.056984
     59 H23         7.9520   -3.8900    0.1900 hc        1 MOL      0.056984
     60 H24         8.4190   -5.2420   -2.8760 hn        1 MOL      0.367068
     61 H25         9.5050   -4.0550   -3.5400 hn        1 MOL      0.367068
     62 N7          4.6710   -5.1140   -1.7520 n         1 MOL     -0.346465
     63 C20         3.7120   -5.7900   -2.6220 c3        1 MOL     -0.142552
     64 C21         2.3570   -6.2420   -2.0030 c         1 MOL      0.458653
     65 O12         1.6060   -7.0700   -2.5530 o         1 MOL     -0.541556
     66 H26         4.7870   -5.5090   -0.8250 hn        1 MOL      0.260949
     67 H27         4.1930   -6.6290   -3.1210 h1        1 MOL      0.120535
     68 H28         3.3730   -5.1500   -3.4340 h1        1 MOL      0.120535
     69 N8          1.8950   -5.4510   -1.0550 n         1 MOL     -0.295470
     70 C22         0.4760   -5.5670   -0.6140 c3        1 MOL     -0.185122
     71 C23        -0.3230   -4.2490   -0.6530 c         1 MOL      0.617237
     72 O13         0.0950   -3.1820   -0.2100 o         1 MOL     -0.509161
     73 C24         0.3670   -6.2710    0.7930 c3        1 MOL      0.349342
     74 C25         1.0320   -7.6940    0.8550 c3        1 MOL     -0.559424
     75 O14         0.9970   -5.4280    1.7660 oh        1 MOL     -0.707038
     76 H29         2.4150   -4.6140   -0.8370 hn        1 MOL      0.279041
     77 H30        -0.0030   -6.2480   -1.3090 h1        1 MOL      0.140052
     78 H31        -0.6900   -6.3000    1.0830 h1        1 MOL      0.088210
     79 H32         0.7740   -5.6880    2.6630 ho        1 MOL      0.460617
     80 H33         2.1200   -7.6180    0.8350 hc        1 MOL      0.149462
     81 H34         0.7640   -8.1130    1.8360 hc        1 MOL      0.149462
     82 H35         0.7580   -8.2670   -0.0240 hc        1 MOL      0.149462
     83 N9         -1.5310   -4.5090   -1.1420 n         1 MOL     -0.432153
     84 C26        -2.6500   -3.6230   -1.1550 c3        1 MOL     -0.214568
     85 C27        -3.3220   -3.7260    0.2230 c         1 MOL      0.483647
     86 O15        -3.8540   -4.8030    0.5740 o         1 MOL     -0.612540
     87 C28        -3.5090   -3.8960   -2.3670 c3        1 MOL      0.397586
     88 C29        -4.7140   -2.8800   -2.4220 c3        1 MOL      0.118608
     89 C30        -2.7380   -3.8770   -3.7190 c3        1 MOL     -0.432595
     90 C31        -5.9480   -3.4410   -3.2010 c3        1 MOL     -0.375775
     91 H36        -1.6860   -5.4400   -1.5000 hn        1 MOL      0.270029
     92 H37        -2.3490   -2.5860   -1.2900 h1        1 MOL      0.126541
     93 H38        -4.0070   -4.8610   -2.3400 hc        1 MOL     -0.047204
     94 H39        -4.3810   -1.8810   -2.6980 hc        1 MOL     -0.036169
     95 H40        -5.0290   -2.6880   -1.3940 hc        1 MOL     -0.036169
     96 H41        -1.9610   -4.6390   -3.6700 hc        1 MOL      0.096556
     97 H42        -3.3800   -4.0710   -4.5710 hc        1 MOL      0.096556
     98 H43        -2.2690   -2.9040   -3.8700 hc        1 MOL      0.096556
     99 H44        -6.8330   -2.8320   -3.0470 hc        1 MOL      0.083245
    100 H45        -5.5000   -3.6010   -4.1800 hc        1 MOL      0.083245
    101 H46        -6.1990   -4.4340   -2.8130 hc        1 MOL      0.083245
    102 N10        -3.4050   -2.6290    0.8910 n         1 MOL     -0.001659
    103 C32        -4.0470   -2.3930    2.1550 c3        1 MOL     -0.221928
    104 C33        -5.1580   -1.3500    2.2560 c         1 MOL      0.602774
    105 O16        -5.8780   -1.3870    3.2420 o         1 MOL     -0.569178
    106 C34        -2.9440   -2.0870    3.2320 c3        1 MOL     -0.056582
    107 C35        -1.6420   -2.9130    3.1020 c         1 MOL      0.698777
    108 O17        -0.5370   -2.4040    2.7250 o         1 MOL     -0.718919
    109 O18        -1.6400   -4.0920    3.5470 o         1 MOL     -0.718919
    110 H47        -2.8880   -1.8540    0.5020 hn        1 MOL      0.243099
    111 H48        -4.5090   -3.3480    2.3990 h1        1 MOL      0.125971
    112 H49        -3.2990   -2.3640    4.2230 hc        1 MOL      0.023265
    113 H50        -2.7130   -1.0280    3.0940 hc        1 MOL      0.023265
    114 N11        -5.4100   -0.5300    1.2550 n         1 MOL     -0.642345
    115 C36        -6.5290    0.4920    1.3000 c3        1 MOL      0.526059
    116 C37        -6.0030    1.8250    0.7370 c         1 MOL      0.110491
    117 O19        -6.5470    2.2440   -0.3080 o         1 MOL     -0.381249
    118 C38        -7.5890   -0.1130    0.3650 c3        1 MOL     -0.288949
    119 C39        -8.9160    0.6310    0.2180 ca        1 MOL      0.179338
    120 C40        -9.6480    0.3880   -0.9770 ca        1 MOL     -0.238278
    121 C41        -9.4660    1.5440    1.1990 ca        1 MOL     -0.238278
    122 C42       -10.8750    0.9700   -1.1970 ca        1 MOL     -0.028320
    123 C43       -10.7080    2.1400    0.8830 ca        1 MOL     -0.028320
    124 C44       -11.4160    1.8420   -0.2440 ca        1 MOL     -0.228813
    125 H51        -4.7810   -0.4070    0.4730 hn        1 MOL      0.317742
    126 H52        -6.9810    0.5740    2.2970 h1        1 MOL     -0.016058
    127 H53        -7.8110   -1.1070    0.7560 hc        1 MOL      0.107679
    128 H54        -7.2020   -0.1730   -0.6480 hc        1 MOL      0.107679
    129 H55        -9.3060   -0.2630   -1.7760 ha        1 MOL      0.134047
    130 H56        -8.9710    2.0220    2.0280 ha        1 MOL      0.134047
    131 H57       -11.5020    0.8340   -2.0710 ha        1 MOL      0.080498
    132 H58       -11.0590    2.9080    1.5550 ha        1 MOL      0.080498
    133 H59       -12.2490    2.4860   -0.5070 ha        1 MOL      0.114158
    134 N12        -4.8690    2.3980    1.2830 n         1 MOL      0.000261
    135 C45        -4.3160    3.6530    0.7880 c3        1 MOL     -0.108613
    136 C46        -3.9310    3.7780   -0.6570 c         1 MOL      0.194417
    137 O20        -3.9080    4.8770   -1.2310 o         1 MOL     -0.458652
    138 C47        -3.0710    4.0220    1.6630 c3        1 MOL      0.016106
    139 C48        -3.2210    3.1240    2.8680 c3        1 MOL     -0.011987
    140 C49        -4.0190    1.8890    2.3320 c3        1 MOL     -0.182238
    141 H60        -5.0700    4.4430    0.8680 h1        1 MOL      0.101117
    142 H61        -2.1370    3.7250    1.1820 hc        1 MOL      0.059183
    143 H62        -2.9270    5.0620    1.9670 hc        1 MOL      0.059183
    144 H63        -2.2400    2.8950    3.2800 hc        1 MOL      0.019287
    145 H64        -3.7610    3.7370    3.5930 hc        1 MOL      0.019287
    146 H65        -3.2660    1.2360    1.8790 h1        1 MOL      0.096055
    147 H66        -4.5420    1.3830    3.1420 h1        1 MOL      0.096055
    148 N13        -3.6780    2.5900   -1.2580 n         1 MOL      0.098100
    149 C50        -3.2820    2.5390   -2.6960 c3        1 MOL     -0.348141
    150 C51        -4.3810    3.0020   -3.6940 c         1 MOL      0.537618
    151 O21        -4.1360    3.7480   -4.6280 o         1 MOL     -0.527557
    152 C52        -2.7010    1.1420   -3.0180 c3        1 MOL      0.190643
    153 C53        -1.5350    0.5000   -2.2490 c3        1 MOL     -0.103342
    154 C54        -2.0260   -0.0680   -0.8350 c         1 MOL      0.565384
    155 O22        -1.1980   -0.6050   -0.0210 o         1 MOL     -0.689811
    156 O23        -3.2130   -0.0080   -0.5070 o         1 MOL     -0.689811
    157 H67        -3.6940    1.7870   -0.6410 hn        1 MOL      0.186018
    158 H68        -2.4120    3.1360   -2.9690 h1        1 MOL      0.129176
    159 H69        -2.4700    1.1500   -4.0780 hc        1 MOL     -0.041941
    160 H70        -3.5120    0.4020   -3.0150 hc        1 MOL     -0.041941
    161 H71        -0.7240    1.1760   -1.9980 hc        1 MOL      0.029640
    162 H72        -1.0630   -0.2300   -2.9060 hc        1 MOL      0.029640
    163 N14        -5.6480    2.6550   -3.2960 n         1 MOL     -0.232374
    164 C55        -6.8910    3.1090   -3.9330 c3        1 MOL     -0.187273
    165 H73        -6.7500    4.1150   -4.3280 h1        1 MOL      0.084326
    166 H74        -7.1510    2.4320   -4.7470 h1        1 MOL      0.084326
    167 H75        -7.6950    3.1180   -3.1960 h1        1 MOL      0.084326
    168 H76        -5.7110    2.1500   -2.4230 hn        1 MOL      0.196060
    169 Ca1         0.8960   -0.9210    1.3540 Ca        1 MOL      1.611404
    170 O24        -0.4400    0.8740    2.6090 oh        1 MOL     -0.810088
    171 H77         0.2200    1.1340    3.2590 ho        1 MOL      0.394820
    172 H78        -1.2610    0.8430    3.0980 ho        1 MOL      0.394820
    173 O25         2.5830   -1.1060   -0.8590 oh        1 MOL     -0.810088
    174 H79         2.5650   -1.4550   -1.7440 ho        1 MOL      0.394820
    175 H80         3.0050   -0.2480   -0.9490 ho        1 MOL      0.394820
    176 O26         2.4340   -3.2560    2.0390 oh        1 MOL     -0.810088
    177 H81         1.9090   -4.0610    1.9560 ho        1 MOL      0.394820
    178 H82         2.6700   -3.2200    2.9620 ho        1 MOL      0.394820
    179 O27         1.3050    1.6860    0.4120 oh        1 MOL     -0.810088
    180 H83         1.9870    1.8650   -0.2290 ho        1 MOL      0.394820
    181 H84         0.9920    2.5490    0.6860 ho        1 MOL      0.394820
@<TRIPOS>BOND
     1    1    2 1   
     2    1    4 1   
     3    1    5 1   
     4    1    6 1   
     5    2    3 2   
     6    2    7 1   
     7    7    8 1   
     8    7   15 1   
     9    8    9 1   
    10    8   11 1   
    11    8   16 1   
    12    9   10 2   
    13    9   19 1   
    14   11   12 1   
    15   11   17 1   
    16   11   18 1   
    17   12   13 1   
    18   12   14 1   
    19   19   20 1   
    20   19   24 1   
    21   20   21 1   
    22   20   23 1   
    23   20   25 1   
    24   21   22 2   
    25   21   29 1   
    26   23   26 1   
    27   23   27 1   
    28   23   28 1   
    29   29   30 1   
    30   29   37 1   
    31   30   31 1   
    32   30   33 1   
    33   30   38 1   
    34   31   32 2   
    35   31   41 1   
    36   33   34 1   
    37   33   39 1   
    38   33   40 1   
    39   34   35 1   
    40   34   36 1   
    41   41   42 1   
    42   41   45 1   
    43   42   43 1   
    44   42   46 1   
    45   42   47 1   
    46   43   44 2   
    47   43   48 1   
    48   48   49 1   
    49   48   56 1   
    50   49   50 1   
    51   49   52 1   
    52   49   57 1   
    53   50   51 2   
    54   50   62 1   
    55   52   53 1   
    56   52   58 1   
    57   52   59 1   
    58   53   54 1   
    59   53   55 2   
    60   54   60 1   
    61   54   61 1   
    62   62   63 1   
    63   62   66 1   
    64   63   64 1   
    65   63   67 1   
    66   63   68 1   
    67   64   65 2   
    68   64   69 1   
    69   69   70 1   
    70   69   76 1   
    71   70   71 1   
    72   70   73 1   
    73   70   77 1   
    74   71   72 2   
    75   71   83 1   
    76   73   74 1   
    77   73   75 1   
    78   73   78 1   
    79   74   80 1   
    80   74   81 1   
    81   74   82 1   
    82   75   79 1   
    83   83   84 1   
    84   83   91 1   
    85   84   85 1   
    86   84   87 1   
    87   84   92 1   
    88   85   86 2   
    89   85  102 1   
    90   87   88 1   
    91   87   89 1   
    92   87   93 1   
    93   88   90 1   
    94   88   94 1   
    95   88   95 1   
    96   89   96 1   
    97   89   97 1   
    98   89   98 1   
    99   90   99 1   
   100   90  100 1   
   101   90  101 1   
   102  102  103 1   
   103  102  110 1   
   104  103  104 1   
   105  103  106 1   
   106  103  111 1   
   107  104  105 2   
   108  104  114 1   
   109  106  107 1   
   110  106  112 1   
   111  106  113 1   
   112  107  108 1   
   113  107  109 1   
   114  114  115 1   
   115  114  125 1   
   116  115  116 1   
   117  115  118 1   
   118  115  126 1   
   119  116  117 2   
   120  116  134 1   
   121  118  119 1   
   122  118  127 1   
   123  118  128 1   
   124  119  120 ar  
   125  119  121 ar  
   126  120  122 ar  
   127  120  129 1   
   128  121  123 ar  
   129  121  130 1   
   130  122  124 ar  
   131  122  131 1   
   132  123  124 ar  
   133  123  132 1   
   134  124  133 1   
   135  134  135 1   
   136  134  140 1   
   137  135  136 1   
   138  135  138 1   
   139  135  141 1   
   140  136  137 2   
   141  136  148 1   
   142  138  139 1   
   143  138  142 1   
   144  138  143 1   
   145  139  140 1   
   146  139  144 1   
   147  139  145 1   
   148  140  146 1   
   149  140  147 1   
   150  148  149 1   
   151  148  157 1   
   152  149  150 1   
   153  149  152 1   
   154  149  158 1   
   155  150  151 2   
   156  150  163 1   
   157  152  153 1   
   158  152  159 1   
   159  152  160 1   
   160  153  154 1   
   161  153  161 1   
   162  153  162 1   
   163  154  155 1   
   164  154  156 1   
   165  163  164 1   
   166  163  168 1   
   167  164  165 1   
   168  164  166 1   
   169  164  167 1   
   170  170  171 1   
   171  170  172 1   
   172  173  174 1   
   173  173  175 1   
   174  176  177 1   
   175  176  178 1   
   176  179  180 1   
   177  179  181 1   
@<TRIPOS>SUBSTRUCTURE
     1 MOL         1 TEMP              0 ****  ****    0 ROOT
