@<TRIPOS>MOLECULE
MOL
  182   178     1     0     0
SMALL
resp


@<TRIPOS>ATOM
      1 C1          2.6380   -5.4100    5.6010 c3        1 MOL     -0.361994
      2 C2          2.3420   -4.8950    4.1920 c         1 MOL      0.696625
      3 O1          1.6210   -5.5510    3.3540 o         1 MOL     -0.612741
      4 H1          3.0020   -6.4360    5.5440 hc        1 MOL      0.099455
      5 H2          3.3980   -4.7810    6.0660 hc        1 MOL      0.099455
      6 H3          1.7270   -5.3810    6.1980 hc        1 MOL      0.099455
      7 N1          2.8970   -3.7290    3.8960 n         1 MOL     -0.518102
      8 C3          2.8250   -3.1010    2.6070 c3        1 MOL      0.034277
      9 C4          3.5390   -3.9310    1.4820 c         1 MOL      0.542753
     10 O2          4.6740   -4.3640    1.6130 o         1 MOL     -0.504052
     11 C5          3.5540   -1.6900    2.7040 c3        1 MOL     -0.177370
     12 C6          3.4680   -0.9570    1.3950 c         1 MOL      0.775533
     13 O3          3.7210    0.2520    1.3620 o         1 MOL     -0.773596
     14 O4          2.9680   -1.4520    0.3580 o         1 MOL     -0.773596
     15 H4          3.5300   -3.2820    4.5540 hn        1 MOL      0.308143
     16 H5          1.7820   -2.8530    2.4240 h1        1 MOL      0.041755
     17 H6          4.6290   -1.8550    2.7540 hc        1 MOL      0.052626
     18 H7          3.0640   -1.0880    3.4750 hc        1 MOL      0.052626
     19 N2          2.7520   -4.2930    0.4410 n         1 MOL     -0.256681
     20 C7          3.2000   -5.3440   -0.5660 c3        1 MOL     -0.188380
     21 C8          4.3090   -4.7830   -1.4820 c         1 MOL      0.532685
     22 O5          5.1210   -5.5270   -2.0910 o         1 MOL     -0.569937
     23 C9          2.0190   -5.8820   -1.2810 c3        1 MOL      0.094271
     24 C10         2.3140   -7.1710   -2.1230 c3        1 MOL     -0.084018
     25 C11         1.0820   -7.8020   -2.6270 c3        1 MOL     -0.066307
     26 C12         0.3270   -6.9390   -3.6510 c3        1 MOL      0.117827
     27 N3         -1.0310   -7.5460   -3.9510 n4        1 MOL     -0.422587
     28 H8          1.7710   -4.0500    0.3650 hn        1 MOL      0.205926
     29 H9          3.6210   -6.1970   -0.0520 h1        1 MOL      0.140379
     30 H10         1.5870   -5.0670   -1.8620 hc        1 MOL      0.008644
     31 H11         1.2440   -6.1350   -0.5630 hc        1 MOL      0.008644
     32 H12         2.8270   -7.8940   -1.4980 hc        1 MOL      0.069642
     33 H13         2.9520   -6.9740   -2.9890 hc        1 MOL      0.069642
     34 H14         0.3960   -7.9560   -1.7920 hc        1 MOL      0.044767
     35 H15         1.3430   -8.7720   -3.0510 hc        1 MOL      0.044767
     36 H16         0.8900   -6.8390   -4.5840 hx        1 MOL      0.059641
     37 H17         0.2310   -5.9180   -3.2800 hx        1 MOL      0.059641
     38 H18        -1.6900   -7.3470   -3.2100 hn        1 MOL      0.332169
     39 H19        -1.3340   -7.1930   -4.8460 hn        1 MOL      0.332169
     40 H20        -1.0250   -8.5490   -4.0670 hn        1 MOL      0.332169
     41 N4          4.4080   -3.4510   -1.4990 n         1 MOL     -0.340457
     42 C13         5.4570   -2.8050   -2.2750 c3        1 MOL      0.063486
     43 C14         6.4160   -1.8870   -1.4760 c         1 MOL      0.414774
     44 O6          7.4890   -1.5690   -1.9560 o         1 MOL     -0.557819
     45 C15         4.8060   -2.0070   -3.4170 c3        1 MOL     -0.427676
     46 C16         3.8220   -0.8720   -2.9510 c         1 MOL      0.782646
     47 O7          4.0570   -0.1760   -1.9440 o         1 MOL     -0.732189
     48 O8          2.8080   -0.5270   -3.5710 o         1 MOL     -0.732189
     49 H21         3.7380   -2.9470   -0.9450 hn        1 MOL      0.235358
     50 H22         6.1920   -3.4910   -2.7110 h1        1 MOL      0.142217
     51 H23         4.3160   -2.6760   -4.1160 hc        1 MOL      0.122347
     52 H24         5.6210   -1.6010   -4.0140 hc        1 MOL      0.122347
     53 N5          6.0900   -1.5990   -0.2070 n         1 MOL     -0.023741
     54 C17         7.0160   -0.8520    0.7420 c3        1 MOL     -0.296370
     55 C18         7.0930    0.7220    0.4980 c         1 MOL      0.527754
     56 O9          7.9550    1.3560    1.0750 o         1 MOL     -0.548867
     57 H25         5.1860   -1.8730    0.1540 hn        1 MOL      0.044260
     58 H26         8.0540   -1.1730    0.6370 h1        1 MOL      0.145315
     59 H27         6.6920   -0.9650    1.7690 h1        1 MOL      0.145315
     60 N6          6.2900    1.2660   -0.4080 n         1 MOL     -0.083166
     61 C19         6.3320    2.6910   -0.7950 c3        1 MOL      0.096459
     62 C20         5.0050    3.4460   -0.6600 c         1 MOL      0.469765
     63 O10         3.8990    2.8310   -0.5940 o         1 MOL     -0.493250
     64 C21         7.0130    2.8300   -2.1830 c3        1 MOL     -0.097073
     65 C22         8.4600    2.2650   -2.3740 c         1 MOL      0.625850
     66 N7          8.7690    1.0090   -2.2050 n         1 MOL     -0.802880
     67 O11         9.3490    3.0520   -2.5430 o         1 MOL     -0.565792
     68 H28         5.5110    0.6590   -0.6340 hn        1 MOL      0.052247
     69 H29         7.0110    3.1600   -0.0730 h1        1 MOL      0.031381
     70 H30         7.1340    3.8560   -2.5380 hc        1 MOL      0.006419
     71 H31         6.3140    2.3160   -2.8530 hc        1 MOL      0.006419
     72 H32         8.0550    0.2910   -2.1210 hn        1 MOL      0.384529
     73 H33         9.7310    0.7240   -2.1840 hn        1 MOL      0.384529
     74 N8          5.0650    4.8200   -0.6040 n         1 MOL     -0.474819
     75 C23         3.8790    5.6660   -0.7740 c3        1 MOL      0.047137
     76 C24         2.8670    5.4850    0.3490 c         1 MOL      0.634266
     77 O12         3.2330    5.5040    1.5130 o         1 MOL     -0.499138
     78 H34         5.9730    5.2450   -0.7060 hn        1 MOL      0.336108
     79 H35         3.3010    5.3180   -1.6230 h1        1 MOL      0.035465
     80 H36         4.1010    6.7230   -0.9740 h1        1 MOL      0.035465
     81 N9          1.5820    5.3090   -0.0990 n         1 MOL     -0.776256
     82 C25         0.4540    4.8650    0.7470 c3        1 MOL      0.464360
     83 C26         0.7210    3.5420    1.3960 c         1 MOL      0.382028
     84 O13         1.5580    2.7590    0.8890 o         1 MOL     -0.433612
     85 C27        -0.8170    4.8960   -0.0830 c3        1 MOL     -0.220843
     86 C28        -1.3360    6.2450   -0.4140 ca        1 MOL      0.041708
     87 C29        -1.5910    6.4950   -1.7670 ca        1 MOL     -0.111091
     88 C30        -1.6640    7.2230    0.5640 ca        1 MOL     -0.111091
     89 C31        -2.1280    7.7190   -2.2000 ca        1 MOL     -0.302580
     90 C32        -2.2120    8.4650    0.1380 ca        1 MOL     -0.302580
     91 C33        -2.4440    8.7130   -1.2440 ca        1 MOL      0.377978
     92 O14        -3.1000    9.8320   -1.6800 oh        1 MOL     -0.482117
     93 H37         1.5020    5.1320   -1.0940 hn        1 MOL      0.340092
     94 H38         0.3100    5.5420    1.5930 h1        1 MOL      0.022249
     95 H39        -1.5710    4.3750    0.5060 hc        1 MOL      0.039749
     96 H40        -0.5740    4.2860   -0.9470 hc        1 MOL      0.039749
     97 H41        -1.2760    5.7850   -2.5120 ha        1 MOL      0.118126
     98 H42        -1.5120    7.0250    1.6180 ha        1 MOL      0.118126
     99 H43        -2.3810    7.8520   -3.2450 ha        1 MOL      0.172839
    100 H44        -2.5680    9.1770    0.8530 ha        1 MOL      0.172839
    101 H45        -3.2550    9.8620   -2.6250 ho        1 MOL      0.366040
    102 N10        -0.1290    3.2390    2.3080 n         1 MOL     -0.678590
    103 C34        -0.0700    1.9320    3.0140 c3        1 MOL      0.328943
    104 C35        -0.2750    0.6400    2.1150 c         1 MOL      0.215442
    105 O15         0.6230    0.2830    1.3780 o         1 MOL     -0.398443
    106 C36         1.1770    1.8220    4.0080 c3        1 MOL      0.281874
    107 C37         0.9800    0.6840    5.0360 c3        1 MOL     -0.188930
    108 C38         1.4890    3.1650    4.6810 c3        1 MOL     -0.257634
    109 C39        -0.1730    0.7430    6.0650 c3        1 MOL     -0.231699
    110 H46        -0.7880    3.9100    2.6660 hn        1 MOL      0.346611
    111 H47        -0.9750    2.0150    3.6300 h1        1 MOL     -0.015199
    112 H48         2.0400    1.5590    3.3940 hc        1 MOL     -0.010389
    113 H49         1.8960    0.5140    5.6010 hc        1 MOL      0.080378
    114 H50         0.8450   -0.2220    4.4380 hc        1 MOL      0.080378
    115 H51         2.2470    2.9090    5.4190 hc        1 MOL      0.065474
    116 H52         1.7700    3.9220    3.9410 hc        1 MOL      0.065474
    117 H53         0.5760    3.4080    5.2210 hc        1 MOL      0.065474
    118 H54        -0.1190    1.6970    6.5900 hc        1 MOL      0.054680
    119 H55        -1.1320    0.6920    5.5480 hc        1 MOL      0.054680
    120 H56        -0.1030   -0.0530    6.7940 hc        1 MOL      0.054680
    121 N11        -1.3380   -0.1030    2.3680 n         1 MOL     -0.207753
    122 C40        -1.5890   -1.4810    1.8930 c3        1 MOL      0.012898
    123 C41        -2.8630   -1.6160    1.0230 c         1 MOL      0.443989
    124 O16        -3.2840   -2.7390    0.8490 o         1 MOL     -0.548999
    125 C42        -1.6750   -2.4020    3.0730 c3        1 MOL      0.120274
    126 O17        -0.3240   -2.5810    3.5330 oh        1 MOL     -0.508645
    127 H57        -1.9980    0.2860    3.0360 hn        1 MOL      0.228404
    128 H58        -0.7370   -1.8730    1.3440 h1        1 MOL      0.091919
    129 H59        -2.0220   -3.4070    2.8220 h1        1 MOL      0.049280
    130 H60        -2.3210   -2.0520    3.8790 h1        1 MOL      0.049280
    131 H61        -0.3970   -3.1740    4.2900 ho        1 MOL      0.363621
    132 N12        -3.5210   -0.5810    0.6370 n         1 MOL     -0.342866
    133 C43        -4.8810   -0.5800   -0.0010 c3        1 MOL      0.027084
    134 C44        -4.8820    0.0760   -1.4350 c         1 MOL      0.601447
    135 O18        -3.8470    0.6080   -1.9190 o         1 MOL     -0.575286
    136 C45        -5.8440    0.1480    1.0350 c3        1 MOL      0.008637
    137 H62        -3.1580    0.2870    1.0080 hn        1 MOL      0.164633
    138 H63        -5.1720   -1.6220    0.0000 h1        1 MOL      0.137469
    139 H64        -5.5700    1.1700    1.2590 hc        1 MOL      0.006666
    140 H65        -6.8950    0.2560    0.7340 hc        1 MOL      0.006666
    141 H66        -5.8570   -0.3020    2.0220 hc        1 MOL      0.006666
    142 N13        -5.9680    0.0100   -2.1910 n         1 MOL     -0.674813
    143 C46        -7.0680   -0.9330   -1.9310 c3        1 MOL      0.583771
    144 C47        -8.5030   -0.2740   -2.1310 c         1 MOL      0.205915
    145 O19        -8.6730    0.4050   -3.1360 o         1 MOL     -0.496835
    146 C48        -6.8290   -2.2470   -2.6860 c3        1 MOL     -0.343728
    147 H67        -6.0600    0.5980   -3.0150 hn        1 MOL      0.350353
    148 H68        -7.0580   -1.2290   -0.8810 h1        1 MOL     -0.115820
    149 H69        -7.6930   -2.8940   -2.5310 hc        1 MOL      0.084963
    150 H70        -6.8400   -1.9320   -3.7310 hc        1 MOL      0.084963
    151 H71        -5.8980   -2.7220   -2.3700 hc        1 MOL      0.084963
    152 N14        -9.5660   -0.4960   -1.3280 n         1 MOL     -0.061002
    153 C49        -9.6700   -1.5250   -0.2780 c3        1 MOL     -0.297830
    154 C50        -9.5520   -1.0270    1.1660 c         1 MOL      0.556988
    155 O20        -9.2720   -1.8440    2.1020 o         1 MOL     -0.535095
    156 C51       -10.8070   -2.5160   -0.6310 c3        1 MOL      0.022104
    157 C52       -12.2530   -2.1150   -0.3520 c3        1 MOL     -0.049690
    158 C53       -12.6560   -0.8250   -1.2080 c         1 MOL      0.589293
    159 O21       -12.2910    0.2820   -0.7540 o         1 MOL     -0.652275
    160 O22       -13.1250   -1.0580   -2.3470 o         1 MOL     -0.652275
    161 H72       -10.3510    0.0970   -1.5410 hn        1 MOL      0.236020
    162 H73        -8.7770   -2.1380   -0.4430 h1        1 MOL      0.080618
    163 H74       -10.6890   -3.4440   -0.0780 hc        1 MOL      0.031137
    164 H75       -10.7940   -2.6960   -1.7080 hc        1 MOL      0.031137
    165 H76       -12.3940   -1.9560    0.7080 hc        1 MOL     -0.008983
    166 H77       -12.9080   -2.9240   -0.6740 hc        1 MOL     -0.008983
    167 N15        -9.8280    0.2890    1.4540 n         1 MOL     -0.282403
    168 C54        -9.5290    0.9700    2.7150 c3        1 MOL     -0.131680
    169 H78       -10.2640    1.7560    2.8850 h1        1 MOL      0.081749
    170 H79        -9.5700    0.2520    3.5330 h1        1 MOL      0.081749
    171 H80        -8.5330    1.4090    2.6650 h1        1 MOL      0.081749
    172 H81       -10.1270    0.8640    0.6720 hn        1 MOL      0.216593
    173 Ca1         2.1410    0.8120   -0.7620 Ca        1 MOL      1.812247
    174 O23         0.3920   -1.1050   -1.3960 oh        1 MOL     -0.849700
    175 O24         2.0240    2.3780   -2.9010 oh        1 MOL     -0.849700
    176 H82        -0.5010   -1.0910   -1.7520 ho        1 MOL      0.419524
    177 H83         2.3540    1.9700   -3.7040 ho        1 MOL      0.419524
    178 H84         0.4890   -1.9750   -1.0290 ho        1 MOL      0.419524
    179 H85         1.8810    3.2880   -3.1410 ho        1 MOL      0.419524
    180 O25        -0.5460    1.7030   -1.2200 oh        1 MOL     -0.849700
    181 H86        -0.6510    2.4620   -1.7960 ho        1 MOL      0.419524
    182 H87        -1.3990    1.5870   -0.8040 ho        1 MOL      0.419524
@<TRIPOS>BOND
     1    1    2 1   
     2    1    4 1   
     3    1    5 1   
     4    1    6 1   
     5    2    3 2   
     6    2    7 1   
     7    7    8 1   
     8    7   15 1   
     9    8    9 1   
    10    8   11 1   
    11    8   16 1   
    12    9   10 2   
    13    9   19 1   
    14   11   12 1   
    15   11   17 1   
    16   11   18 1   
    17   12   13 1   
    18   12   14 1   
    19   19   20 1   
    20   19   28 1   
    21   20   21 1   
    22   20   23 1   
    23   20   29 1   
    24   21   22 2   
    25   21   41 1   
    26   23   24 1   
    27   23   30 1   
    28   23   31 1   
    29   24   25 1   
    30   24   32 1   
    31   24   33 1   
    32   25   26 1   
    33   25   34 1   
    34   25   35 1   
    35   26   27 1   
    36   26   36 1   
    37   26   37 1   
    38   27   38 1   
    39   27   39 1   
    40   27   40 1   
    41   41   42 1   
    42   41   49 1   
    43   42   43 1   
    44   42   45 1   
    45   42   50 1   
    46   43   44 2   
    47   43   53 1   
    48   45   46 1   
    49   45   51 1   
    50   45   52 1   
    51   46   47 1   
    52   46   48 1   
    53   53   54 1   
    54   53   57 1   
    55   54   55 1   
    56   54   58 1   
    57   54   59 1   
    58   55   56 2   
    59   55   60 1   
    60   60   61 1   
    61   60   68 1   
    62   61   62 1   
    63   61   64 1   
    64   61   69 1   
    65   62   63 2   
    66   62   74 1   
    67   64   65 1   
    68   64   70 1   
    69   64   71 1   
    70   65   66 1   
    71   65   67 2   
    72   66   72 1   
    73   66   73 1   
    74   74   75 1   
    75   74   78 1   
    76   75   76 1   
    77   75   79 1   
    78   75   80 1   
    79   76   77 2   
    80   76   81 1   
    81   81   82 1   
    82   81   93 1   
    83   82   83 1   
    84   82   85 1   
    85   82   94 1   
    86   83   84 2   
    87   83  102 1   
    88   85   86 1   
    89   85   95 1   
    90   85   96 1   
    91   86   87 ar  
    92   86   88 ar  
    93   87   89 ar  
    94   87   97 1   
    95   88   90 ar  
    96   88   98 1   
    97   89   91 ar  
    98   89   99 1   
    99   90   91 ar  
   100   90  100 1   
   101   91   92 1   
   102   92  101 1   
   103  102  103 1   
   104  102  110 1   
   105  103  104 1   
   106  103  106 1   
   107  103  111 1   
   108  104  105 2   
   109  104  121 1   
   110  106  107 1   
   111  106  108 1   
   112  106  112 1   
   113  107  109 1   
   114  107  113 1   
   115  107  114 1   
   116  108  115 1   
   117  108  116 1   
   118  108  117 1   
   119  109  118 1   
   120  109  119 1   
   121  109  120 1   
   122  121  122 1   
   123  121  127 1   
   124  122  123 1   
   125  122  125 1   
   126  122  128 1   
   127  123  124 2   
   128  123  132 1   
   129  125  126 1   
   130  125  129 1   
   131  125  130 1   
   132  126  131 1   
   133  132  133 1   
   134  132  137 1   
   135  133  134 1   
   136  133  136 1   
   137  133  138 1   
   138  134  135 2   
   139  134  142 1   
   140  136  139 1   
   141  136  140 1   
   142  136  141 1   
   143  142  143 1   
   144  142  147 1   
   145  143  144 1   
   146  143  146 1   
   147  143  148 1   
   148  144  145 2   
   149  144  152 1   
   150  146  149 1   
   151  146  150 1   
   152  146  151 1   
   153  152  153 1   
   154  152  161 1   
   155  153  154 1   
   156  153  156 1   
   157  153  162 1   
   158  154  155 2   
   159  154  167 1   
   160  156  157 1   
   161  156  163 1   
   162  156  164 1   
   163  157  158 1   
   164  157  165 1   
   165  157  166 1   
   166  158  159 1   
   167  158  160 1   
   168  167  168 1   
   169  167  172 1   
   170  168  169 1   
   171  168  170 1   
   172  168  171 1   
   173  174  176 1   
   174  174  178 1   
   175  175  177 1   
   176  175  179 1   
   177  180  181 1   
   178  180  182 1   
@<TRIPOS>SUBSTRUCTURE
     1 MOL         1 TEMP              0 ****  ****    0 ROOT
