@<TRIPOS>MOLECULE
MOL
  192   187     1     0     0
SMALL
resp


@<TRIPOS>ATOM
      1 C1          5.4450    1.6970    6.0330 c3        1 MOL     -0.133655
      2 C2          5.1650    1.4240    4.5110 c         1 MOL      0.764103
      3 O1          4.8020    2.3830    3.7520 o         1 MOL     -0.649041
      4 H1          5.6510    0.7540    6.5390 hc        1 MOL      0.028375
      5 H2          6.3060    2.3580    6.1320 hc        1 MOL      0.028375
      6 H3          4.5720    2.1680    6.4850 hc        1 MOL      0.028375
      7 N1          5.2130    0.1870    3.9840 n         1 MOL     -0.610728
      8 C3          4.8590   -0.1520    2.5960 c3        1 MOL      0.412493
      9 C4          3.3370   -0.0900    2.2610 c         1 MOL      0.058532
     10 O2          3.1000   -0.3300    1.0930 o         1 MOL     -0.227141
     11 C5          5.3770   -1.6060    2.3640 c3        1 MOL     -0.331256
     12 C6          6.7830   -1.8720    3.0210 c         1 MOL      0.760882
     13 O3          7.7020   -2.0710    2.2400 o         1 MOL     -0.704783
     14 O4          6.8940   -2.0810    4.2560 o         1 MOL     -0.704783
     15 H4          5.7290   -0.5050    4.5130 hn        1 MOL      0.246646
     16 H5          5.3640    0.5120    1.8890 h1        1 MOL      0.014079
     17 H6          5.4410   -1.6660    1.2700 hc        1 MOL      0.050445
     18 H7          4.5990   -2.3260    2.5950 hc        1 MOL      0.050445
     19 N2          2.3440    0.0260    3.2020 n         1 MOL     -0.241057
     20 C7          0.9580   -0.0810    2.7340 c3        1 MOL      0.058300
     21 C8          0.4180    1.3920    2.3890 c         1 MOL      0.180069
     22 O5          0.7960    2.3610    3.0800 o         1 MOL     -0.427593
     23 C9          0.0990   -0.7830    3.7870 c3        1 MOL     -0.026534
     24 C10         0.5470   -2.2660    3.8650 c3        1 MOL     -0.090505
     25 C11        -0.3150   -3.0370    4.7850 c3        1 MOL     -0.001463
     26 C12         0.1250   -4.5500    5.0100 c3        1 MOL      0.122715
     27 N3         -0.7100   -5.2170    5.9810 n4        1 MOL     -0.353553
     28 H8          2.5600    0.2140    4.1680 hn        1 MOL      0.235631
     29 H9          0.9240   -0.6700    1.8220 h1        1 MOL      0.180694
     30 H10        -0.9660   -0.7450    3.5710 hc        1 MOL      0.044039
     31 H11         0.2700   -0.3180    4.7550 hc        1 MOL      0.044039
     32 H12         1.6040   -2.2590    4.1450 hc        1 MOL      0.042671
     33 H13         0.5280   -2.7190    2.8770 hc        1 MOL      0.042671
     34 H14        -1.3660   -3.1070    4.5090 hc        1 MOL      0.022342
     35 H15        -0.2590   -2.5070    5.7340 hc        1 MOL      0.022342
     36 H16         1.1260   -4.6000    5.4380 hx        1 MOL      0.047733
     37 H17         0.0390   -5.0850    4.0690 hx        1 MOL      0.047733
     38 H18        -1.7210   -5.1890    5.8580 hn        1 MOL      0.325923
     39 H19        -0.4410   -6.1910    5.9530 hn        1 MOL      0.325923
     40 H20        -0.4470   -4.8160    6.8730 hn        1 MOL      0.325923
     41 N4         -0.4380    1.6470    1.3810 n         1 MOL      0.139035
     42 C13        -0.9370    0.7100    0.3710 c3        1 MOL     -0.687354
     43 C14        -1.4490   -0.6720    0.8060 c         1 MOL      0.128591
     44 O6         -1.0470   -1.6720    0.2360 o         1 MOL     -0.257662
     45 C15        -0.0360    0.6210   -0.8580 c3        1 MOL     -0.193135
     46 C16         0.1640    1.8630   -1.6680 c         1 MOL      0.483683
     47 O7          0.9450    1.7720   -2.6330 o         1 MOL     -0.656833
     48 O8         -0.4780    2.8990   -1.4420 o         1 MOL     -0.656833
     49 H21        -0.7140    2.6230    1.3580 hn        1 MOL      0.073697
     50 H22        -1.8310    1.2140    0.0010 h1        1 MOL      0.189418
     51 H23        -0.5720   -0.0900   -1.4850 hc        1 MOL      0.324651
     52 H24         0.9440    0.2980   -0.5060 hc        1 MOL      0.324651
     53 N5         -2.4150   -0.8380    1.7220 n         1 MOL     -0.011375
     54 C17        -3.4280    0.1010    2.1940 c3        1 MOL     -0.190963
     55 C18        -4.4670   -0.3810    3.2480 c         1 MOL      0.595988
     56 O9         -4.1760   -1.2940    3.9640 o         1 MOL     -0.589346
     57 H25        -2.5680   -1.8290    1.8560 hn        1 MOL      0.196425
     58 H26        -3.9680    0.5130    1.3480 h1        1 MOL      0.101042
     59 H27        -2.9250    1.0410    2.4260 h1        1 MOL      0.101042
     60 N6         -5.6300    0.1800    3.3280 n         1 MOL     -0.476569
     61 C19        -6.2410    1.3710    2.6520 c3        1 MOL     -0.013917
     62 C20        -7.1240    1.1240    1.3690 c         1 MOL      0.531504
     63 O10        -7.6040   -0.0020    1.1800 o         1 MOL     -0.464511
     64 C21        -6.8930    2.3690    3.6250 c3        1 MOL      0.012993
     65 C22        -7.9890    1.9780    4.5140 c         1 MOL      0.653737
     66 O11        -8.5420    2.9010    5.1900 o         1 MOL     -0.679137
     67 O12        -8.2820    0.7650    4.6430 o         1 MOL     -0.679137
     68 H28        -6.1740   -0.1160    4.1240 hn        1 MOL      0.327621
     69 H29        -5.3830    2.0010    2.4000 h1        1 MOL     -0.006089
     70 H30        -7.2890    3.2090    3.0600 hc        1 MOL     -0.022366
     71 H31        -6.1240    2.8630    4.2240 hc        1 MOL     -0.022366
     72 N7         -7.2530    2.2020    0.5700 n         1 MOL     -0.230814
     73 C23        -7.9450    2.0990   -0.7470 c3        1 MOL     -0.492857
     74 C24        -7.5590    0.9330   -1.5920 c         1 MOL      0.613781
     75 O13        -8.4170    0.2870   -2.1640 o         1 MOL     -0.518579
     76 H32        -6.7260    3.0320    0.7520 hn        1 MOL      0.234276
     77 H33        -7.6340    2.9450   -1.3600 h1        1 MOL      0.200473
     78 H34        -8.9870    1.9460   -0.4850 h1        1 MOL      0.200473
     79 N8         -6.2110    0.6340   -1.6420 n         1 MOL     -0.254060
     80 C25        -5.6980   -0.5340   -2.4300 c3        1 MOL     -0.209636
     81 C26        -4.5430   -1.2120   -1.7010 c         1 MOL      0.373931
     82 O14        -3.6720   -0.5390   -1.0690 o         1 MOL     -0.310517
     83 C27        -5.3420   -0.1590   -3.9400 c3        1 MOL      0.268234
     84 C28        -4.3050    0.9900   -3.9580 c3        1 MOL      0.008376
     85 O15        -6.4830    0.2700   -4.7060 oh        1 MOL     -0.594839
     86 H35        -5.5930    1.0860   -0.9900 hn        1 MOL      0.137591
     87 H36        -6.4730   -1.3030   -2.3260 h1        1 MOL      0.117447
     88 H37        -4.8690   -1.0080   -4.4230 h1        1 MOL      0.018627
     89 H38        -7.1960   -0.3830   -4.6190 ho        1 MOL      0.390489
     90 H39        -3.6390    0.9840   -4.8210 hc        1 MOL      0.000239
     91 H40        -4.8250    1.9480   -3.9350 hc        1 MOL      0.000239
     92 H41        -3.6340    1.0170   -3.0980 hc        1 MOL      0.000239
     93 N9         -4.5160   -2.5660   -1.8040 n         1 MOL     -0.307101
     94 C29        -3.6990   -3.3760   -0.9520 c3        1 MOL     -0.156087
     95 C30        -2.3380   -3.6320   -1.6540 c         1 MOL      0.277079
     96 O16        -1.5920   -4.6090   -1.4430 o         1 MOL     -0.492636
     97 C31        -4.3740   -4.6550   -0.3500 c3        1 MOL      0.183851
     98 C32        -4.4060   -5.9280   -1.2750 c3        1 MOL      0.092011
     99 C33        -5.7490   -4.2820    0.2600 c3        1 MOL     -0.194696
    100 C34        -5.0600   -7.1370   -0.6130 c3        1 MOL     -0.353549
    101 H42        -5.2190   -3.0180   -2.3780 hn        1 MOL      0.269748
    102 H43        -3.5140   -2.7730   -0.0700 h1        1 MOL      0.154562
    103 H44        -3.7210   -4.8650    0.4940 hc        1 MOL      0.012169
    104 H45        -3.3540   -6.1350   -1.5120 hc        1 MOL      0.020463
    105 H46        -4.9450   -5.7860   -2.2070 hc        1 MOL      0.020463
    106 H47        -6.0330   -4.8560    1.1470 hc        1 MOL      0.051493
    107 H48        -5.6450   -3.2740    0.6570 hc        1 MOL      0.051493
    108 H49        -6.5500   -4.3030   -0.4800 hc        1 MOL      0.051493
    109 H50        -4.7100   -7.1500    0.4180 hc        1 MOL      0.081536
    110 H51        -6.1440   -7.2240   -0.6870 hc        1 MOL      0.081536
    111 H52        -4.6530   -7.9660   -1.1970 hc        1 MOL      0.081536
    112 N10        -1.9640   -2.8500   -2.6560 n         1 MOL      0.069881
    113 C35        -0.9070   -3.1020   -3.6110 c3        1 MOL     -0.232358
    114 C36         0.4500   -3.1520   -2.9590 c         1 MOL      0.518759
    115 O17         1.2710   -3.9680   -3.4270 o         1 MOL     -0.590190
    116 C37        -0.9480   -2.1920   -4.8670 c3        1 MOL      0.200438
    117 C38        -0.7180   -0.6380   -4.6660 c3        1 MOL     -0.313274
    118 O18        -2.3070   -2.2960   -5.2930 oh        1 MOL     -0.619119
    119 H53        -2.6620   -2.2030   -2.9780 hn        1 MOL      0.107810
    120 H54        -1.1240   -4.1130   -3.9640 h1        1 MOL      0.131313
    121 H55        -0.2550   -2.6040   -5.6030 h1        1 MOL      0.079959
    122 H56        -2.2570   -2.4390   -6.2440 ho        1 MOL      0.404355
    123 H57        -1.1720   -0.0780   -5.4880 hc        1 MOL      0.119296
    124 H58        -1.3120   -0.2960   -3.8200 hc        1 MOL      0.119296
    125 H59         0.3560   -0.4550   -4.5650 hc        1 MOL      0.119296
    126 N11         0.7310   -2.4250   -1.8830 n         1 MOL      0.104721
    127 C39         1.9970   -2.3130   -1.1380 c3        1 MOL      0.091097
    128 C40         3.0820   -1.5760   -2.0360 c         1 MOL      0.261693
    129 O19         2.9270   -1.4350   -3.2710 o         1 MOL     -0.484694
    130 C41         2.5240   -3.7050   -0.8650 c3        1 MOL      0.432523
    131 C42         1.5460   -4.7330   -0.2710 c3        1 MOL     -0.392258
    132 O20         3.5310   -3.5890    0.1080 oh        1 MOL     -0.703710
    133 H60        -0.0460   -1.9480   -1.4550 hn        1 MOL     -0.502312
    134 H61         1.8310   -1.7590   -0.2130 h1        1 MOL      0.107441
    135 H62         2.9770   -4.1220   -1.7590 h1        1 MOL     -0.002014
    136 H63         4.1970   -4.2870    0.1020 ho        1 MOL      0.411159
    137 H64         0.9870   -5.3520   -0.9770 hc        1 MOL      0.089915
    138 H65         2.1820   -5.4270    0.2730 hc        1 MOL      0.089915
    139 H66         0.8890   -4.2730    0.4590 hc        1 MOL      0.089915
    140 N12         4.1560   -1.0410   -1.3910 n         1 MOL     -0.182294
    141 C43         5.2790   -0.2970   -2.1090 c3        1 MOL      0.128909
    142 C44         5.3250    1.2410   -1.8470 c         1 MOL      0.472986
    143 O21         6.1070    1.9090   -2.4980 o         1 MOL     -0.606936
    144 C45         6.6550   -0.8890   -1.7610 c3        1 MOL     -0.099080
    145 C46         6.9040   -2.2290   -2.4420 c3        1 MOL     -0.074973
    146 C47         8.4130   -2.5460   -2.3240 c3        1 MOL      0.093242
    147 C48         8.8010   -3.8090   -3.0810 c3        1 MOL      0.015438
    148 N13        10.0060   -4.3540   -2.5110 n4        1 MOL     -0.339357
    149 H67         4.1550   -1.1560   -0.3940 hn        1 MOL      0.090200
    150 H68         5.2300   -0.3510   -3.1960 h1        1 MOL      0.061188
    151 H69         6.8050   -0.9570   -0.6820 hc        1 MOL      0.059914
    152 H70         7.4360   -0.1800   -2.0270 hc        1 MOL      0.059914
    153 H71         6.5380   -2.1570   -3.4680 hc        1 MOL      0.034333
    154 H72         6.3750   -2.9870   -1.8560 hc        1 MOL      0.034333
    155 H73         8.7390   -2.5220   -1.2840 hc        1 MOL      0.008593
    156 H74         8.9940   -1.7230   -2.7440 hc        1 MOL      0.008593
    157 H75         8.8240   -3.4630   -4.1160 hx        1 MOL      0.067463
    158 H76         7.8980   -4.4020   -2.9450 hx        1 MOL      0.067463
    159 H77         9.7380   -4.7680   -1.6300 hn        1 MOL      0.326623
    160 H78        10.4710   -5.0760   -3.0420 hn        1 MOL      0.326623
    161 H79        10.5940   -3.5600   -2.2840 hn        1 MOL      0.326623
    162 N14         4.5260    1.7320   -0.8660 n         1 MOL     -0.145855
    163 C49         4.3310    3.1010   -0.5380 c3        1 MOL      0.036168
    164 C50         5.7150    3.6650   -0.1820 c         1 MOL      0.336229
    165 O22         6.4230    3.2190    0.7460 o         1 MOL     -0.489722
    166 C51         3.2240    3.2380    0.5490 c3        1 MOL      0.826034
    167 C52         2.8000    4.6240    0.9550 c3        1 MOL     -0.605283
    168 C53         2.5110    5.5670   -0.2520 c         1 MOL      0.531183
    169 O23         3.4470    6.2560   -0.6930 o         1 MOL     -0.650851
    170 O24         1.3620    5.5660   -0.7840 o         1 MOL     -0.650851
    171 H80         4.0280    1.0910   -0.2770 hn        1 MOL     -0.004748
    172 H81         4.0000    3.5110   -1.4890 h1        1 MOL      0.080593
    173 H82         3.4780    2.6350    1.4120 hc        1 MOL     -0.223921
    174 H83         2.3530    2.7990    0.0540 hc        1 MOL     -0.223921
    175 H84         3.5710    5.0810    1.5740 hc        1 MOL      0.150094
    176 H85         1.9080    4.4370    1.5570 hc        1 MOL      0.150094
    177 N15         6.0070    4.7940   -0.8840 n         1 MOL     -0.165615
    178 C54         7.1860    5.6020   -0.7810 c3        1 MOL     -0.186579
    179 H86         7.3300    6.1520   -1.7110 h1        1 MOL      0.080600
    180 H87         7.0740    6.3060    0.0430 h1        1 MOL      0.080600
    181 H88         8.0500    4.9640   -0.6000 h1        1 MOL      0.080600
    182 H89         5.2920    5.0900   -1.5310 hn        1 MOL      0.262144
    183 Ca1        -1.1300    5.3350   -1.1210 Ca        1 MOL      1.676444
    184 O25        -3.3950    6.8600   -1.8850 oh        1 MOL     -0.886695
    185 H90        -4.1710    6.4050   -1.5910 ho        1 MOL      0.443937
    186 H91        -3.6720    7.3260   -2.6730 ho        1 MOL      0.443937
    187 O26        -0.5510    7.4070   -2.6500 oh        1 MOL     -0.886695
    188 H92        -0.8530    8.2450   -2.2870 ho        1 MOL      0.443937
    189 H93        -0.0910    7.6350   -3.4580 ho        1 MOL      0.443937
    190 O27        -2.5330    4.5250   -3.3010 oh        1 MOL     -0.886695
    191 H94        -1.9530    3.9070   -3.7460 ho        1 MOL      0.443937
    192 H95        -3.0140    4.9560   -4.0040 ho        1 MOL      0.443937
@<TRIPOS>BOND
     1    1    2 1   
     2    1    4 1   
     3    1    5 1   
     4    1    6 1   
     5    2    3 2   
     6    2    7 1   
     7    7    8 1   
     8    7   15 1   
     9    8    9 1   
    10    8   11 1   
    11    8   16 1   
    12    9   10 2   
    13    9   19 1   
    14   11   12 1   
    15   11   17 1   
    16   11   18 1   
    17   12   13 1   
    18   12   14 1   
    19   19   20 1   
    20   19   28 1   
    21   20   21 1   
    22   20   23 1   
    23   20   29 1   
    24   21   22 2   
    25   21   41 1   
    26   23   24 1   
    27   23   30 1   
    28   23   31 1   
    29   24   25 1   
    30   24   32 1   
    31   24   33 1   
    32   25   26 1   
    33   25   34 1   
    34   25   35 1   
    35   26   27 1   
    36   26   36 1   
    37   26   37 1   
    38   27   38 1   
    39   27   39 1   
    40   27   40 1   
    41   41   42 1   
    42   41   49 1   
    43   42   43 1   
    44   42   45 1   
    45   42   50 1   
    46   43   44 2   
    47   43   53 1   
    48   45   46 1   
    49   45   51 1   
    50   45   52 1   
    51   46   47 1   
    52   46   48 1   
    53   53   54 1   
    54   53   57 1   
    55   54   55 1   
    56   54   58 1   
    57   54   59 1   
    58   55   56 2   
    59   55   60 1   
    60   60   61 1   
    61   60   68 1   
    62   61   62 1   
    63   61   64 1   
    64   61   69 1   
    65   62   63 2   
    66   62   72 1   
    67   64   65 1   
    68   64   70 1   
    69   64   71 1   
    70   65   66 1   
    71   65   67 1   
    72   72   73 1   
    73   72   76 1   
    74   73   74 1   
    75   73   77 1   
    76   73   78 1   
    77   74   75 2   
    78   74   79 1   
    79   79   80 1   
    80   79   86 1   
    81   80   81 1   
    82   80   83 1   
    83   80   87 1   
    84   81   82 2   
    85   81   93 1   
    86   83   84 1   
    87   83   85 1   
    88   83   88 1   
    89   84   90 1   
    90   84   91 1   
    91   84   92 1   
    92   85   89 1   
    93   93   94 1   
    94   93  101 1   
    95   94   95 1   
    96   94   97 1   
    97   94  102 1   
    98   95   96 2   
    99   95  112 1   
   100   97   98 1   
   101   97   99 1   
   102   97  103 1   
   103   98  100 1   
   104   98  104 1   
   105   98  105 1   
   106   99  106 1   
   107   99  107 1   
   108   99  108 1   
   109  100  109 1   
   110  100  110 1   
   111  100  111 1   
   112  112  113 1   
   113  112  119 1   
   114  113  114 1   
   115  113  116 1   
   116  113  120 1   
   117  114  115 2   
   118  114  126 1   
   119  116  117 1   
   120  116  118 1   
   121  116  121 1   
   122  117  123 1   
   123  117  124 1   
   124  117  125 1   
   125  118  122 1   
   126  126  127 1   
   127  126  133 1   
   128  127  128 1   
   129  127  130 1   
   130  127  134 1   
   131  128  129 2   
   132  128  140 1   
   133  130  131 1   
   134  130  132 1   
   135  130  135 1   
   136  131  137 1   
   137  131  138 1   
   138  131  139 1   
   139  132  136 1   
   140  140  141 1   
   141  140  149 1   
   142  141  142 1   
   143  141  144 1   
   144  141  150 1   
   145  142  143 2   
   146  142  162 1   
   147  144  145 1   
   148  144  151 1   
   149  144  152 1   
   150  145  146 1   
   151  145  153 1   
   152  145  154 1   
   153  146  147 1   
   154  146  155 1   
   155  146  156 1   
   156  147  148 1   
   157  147  157 1   
   158  147  158 1   
   159  148  159 1   
   160  148  160 1   
   161  148  161 1   
   162  162  163 1   
   163  162  171 1   
   164  163  164 1   
   165  163  166 1   
   166  163  172 1   
   167  164  165 2   
   168  164  177 1   
   169  166  167 1   
   170  166  173 1   
   171  166  174 1   
   172  167  168 1   
   173  167  175 1   
   174  167  176 1   
   175  168  169 1   
   176  168  170 1   
   177  177  178 1   
   178  177  182 1   
   179  178  179 1   
   180  178  180 1   
   181  178  181 1   
   182  184  185 1   
   183  184  186 1   
   184  187  188 1   
   185  187  189 1   
   186  190  191 1   
   187  190  192 1   
@<TRIPOS>SUBSTRUCTURE
     1 MOL         1 TEMP              0 ****  ****    0 ROOT
