@<TRIPOS>MOLECULE
MOL
  192   187     1     0     0
SMALL
resp


@<TRIPOS>ATOM
      1 C1          4.6670    4.4190   -3.1490 c3        1 MOL     -0.370505
      2 C2          5.3900    3.4560   -2.1280 c         1 MOL      0.909838
      3 O1          4.7240    2.9200   -1.2730 o         1 MOL     -0.711446
      4 H1          3.7060    4.7270   -2.7390 hc        1 MOL      0.087583
      5 H2          5.2870    5.3000   -3.3200 hc        1 MOL      0.087583
      6 H3          4.5090    3.8970   -4.0930 hc        1 MOL      0.087583
      7 N1          6.7050    3.2860   -2.1990 n         1 MOL     -0.860802
      8 C3          7.4160    2.1440   -1.4920 c3        1 MOL      0.475422
      9 C4          6.6180    0.8500   -1.4200 c         1 MOL      0.451127
     10 O2          6.0690    0.5260   -0.3670 o         1 MOL     -0.690380
     11 C5          8.1810    2.6090   -0.1750 c3        1 MOL     -0.155687
     12 C6          7.3970    3.6330    0.6310 c         1 MOL      0.728391
     13 O3          6.3210    3.3500    1.1110 o         1 MOL     -0.731367
     14 O4          7.8760    4.7860    0.8010 o         1 MOL     -0.731367
     15 H4          7.2850    3.9770   -2.6640 hn        1 MOL      0.374538
     16 H5          8.2570    1.9030   -2.1390 h1        1 MOL     -0.041729
     17 H6          9.0920    3.1350   -0.4600 hc        1 MOL      0.014844
     18 H7          8.3770    1.7250    0.4240 hc        1 MOL      0.014844
     19 N2          6.3620    0.2510   -2.5830 n         1 MOL     -0.557189
     20 C7          5.4040   -0.8610   -2.8870 c3        1 MOL      0.165193
     21 C8          5.7760   -2.2360   -2.2230 c         1 MOL      0.302204
     22 O5          5.6890   -3.2520   -2.9200 o         1 MOL     -0.504945
     23 C9          3.9380   -0.4190   -2.6750 c3        1 MOL     -0.234014
     24 C10         2.8950   -1.4710   -2.7660 c3        1 MOL      0.050860
     25 C11         3.5590    0.5660   -3.7960 c3        1 MOL     -0.134367
     26 C12         2.8260   -2.2720   -4.1070 c3        1 MOL     -0.385785
     27 H8          6.5320    0.7630   -3.4460 hn        1 MOL      0.309679
     28 H9          5.5480   -0.9440   -3.9580 h1        1 MOL      0.074943
     29 H10         3.9420    0.0280   -1.6810 hc        1 MOL      0.125424
     30 H11         1.8810   -1.0800   -2.6200 hc        1 MOL      0.089727
     31 H12         2.9740   -2.1920   -1.9460 hc        1 MOL      0.089727
     32 H13         4.0820    1.5190   -3.7790 hc        1 MOL      0.045689
     33 H14         3.8010    0.2170   -4.7900 hc        1 MOL      0.045689
     34 H15         2.4800    0.7320   -3.6610 hc        1 MOL      0.045689
     35 H16         3.7700   -2.7130   -4.4130 hc        1 MOL      0.093557
     36 H17         2.3890   -3.2480   -3.8770 hc        1 MOL      0.093557
     37 H18         2.2940   -1.7300   -4.8990 hc        1 MOL      0.093557
     38 N3          6.1880   -2.3230   -0.9520 n         1 MOL     -0.107706
     39 C13         6.7600   -3.4830   -0.3180 c3        1 MOL      0.046525
     40 C14         5.9300   -4.7680   -0.1840 c         1 MOL      0.644073
     41 O6          6.4100   -5.7650   -0.7160 o         1 MOL     -0.606576
     42 C15         7.4080   -3.0930    1.0090 c3        1 MOL     -0.376064
     43 C16         8.4210   -1.9420    0.8830 c         1 MOL      0.785004
     44 O7          8.1610   -0.9280    1.5460 o         1 MOL     -0.724401
     45 O8          9.4190   -2.1470    0.1390 o         1 MOL     -0.724401
     46 H19         6.1400   -1.4850   -0.3920 hn        1 MOL      0.336501
     47 H20         7.5690   -3.8090   -0.9900 h1        1 MOL      0.041802
     48 H21         7.7700   -4.0320    1.4230 hc        1 MOL      0.096792
     49 H22         6.5950   -2.7910    1.6810 hc        1 MOL      0.096792
     50 N4          4.7090   -4.8070    0.3350 n         1 MOL     -0.611206
     51 C17         3.9290   -3.7020    1.0010 c3        1 MOL      0.196540
     52 C18         4.0950   -3.6450    2.5180 c         1 MOL      0.601810
     53 O9          5.1040   -4.2120    2.9660 o         1 MOL     -0.592371
     54 H23         4.3460   -5.7420    0.4440 hn        1 MOL      0.307304
     55 H24         2.8660   -3.8910    0.8270 h1        1 MOL      0.021167
     56 H25         4.2000   -2.7580    0.5300 h1        1 MOL      0.021167
     57 N5          3.3560   -2.9790    3.4080 n         1 MOL     -0.598733
     58 C19         2.1400   -2.2040    2.9770 c3        1 MOL      0.200236
     59 C20         2.3300   -1.2080    1.8500 c         1 MOL      0.284068
     60 O10         3.4700   -0.7430    1.5370 o         1 MOL     -0.630284
     61 C21         1.5720   -1.3370    4.1100 c3        1 MOL     -0.229255
     62 C22         1.0260   -2.0600    5.3310 c         1 MOL      0.656062
     63 O11         0.6990   -1.3100    6.2760 o         1 MOL     -0.710485
     64 O12         0.9350   -3.3130    5.3540 o         1 MOL     -0.710485
     65 H26         3.6680   -2.9710    4.3670 hn        1 MOL      0.373449
     66 H27         1.3600   -2.9070    2.6790 h1        1 MOL     -0.024183
     67 H28         0.7240   -0.7090    3.8410 hc        1 MOL      0.100444
     68 H29         2.3490   -0.6700    4.4790 hc        1 MOL      0.100444
     69 N6          1.3490   -0.9050    0.9780 n         1 MOL      0.002231
     70 C23        -0.1040   -1.2830    0.9960 c3        1 MOL     -0.307098
     71 C24        -0.2130   -2.6320    0.3220 c         1 MOL      0.759733
     72 O13         0.7020   -3.0230   -0.3790 o         1 MOL     -0.594393
     73 H30         1.5820   -0.2570    0.2380 hn        1 MOL      0.033105
     74 H31        -0.7310   -0.5390    0.4940 h1        1 MOL      0.089887
     75 H32        -0.4710   -1.3580    2.0140 h1        1 MOL      0.089887
     76 N7         -1.3880   -3.2140    0.4400 n         1 MOL     -0.472050
     77 C25        -1.7660   -4.4980   -0.2540 c3        1 MOL     -0.039060
     78 C26        -2.5030   -4.3220   -1.6190 c         1 MOL      0.416960
     79 O14        -3.0690   -5.3040   -2.1550 o         1 MOL     -0.501515
     80 C27        -2.4060   -5.4930    0.7170 c3        1 MOL     -0.098184
     81 C28        -3.7290   -4.8620    1.2580 c3        1 MOL      0.035977
     82 C29        -4.5120   -5.6670    2.2870 c         1 MOL      0.558617
     83 N8         -4.2250   -5.5480    3.5440 n         1 MOL     -0.759698
     84 O15        -5.4520   -6.4280    1.9230 o         1 MOL     -0.565088
     85 H33        -2.0950   -2.8350    1.0490 hn        1 MOL      0.303102
     86 H34        -0.8420   -4.9400   -0.6140 h1        1 MOL      0.125354
     87 H35        -1.8020   -5.6060    1.6140 hc        1 MOL      0.066698
     88 H36        -2.7720   -6.4560    0.3470 hc        1 MOL      0.066698
     89 H37        -4.3300   -4.6150    0.3900 hc        1 MOL     -0.039304
     90 H38        -3.4820   -3.8690    1.6530 hc        1 MOL     -0.039304
     91 H39        -3.4340   -4.9450    3.7490 hn        1 MOL      0.381984
     92 H40        -4.7280   -6.1260    4.2080 hn        1 MOL      0.381984
     93 N9         -2.6060   -3.0630   -2.0640 n         1 MOL     -0.071221
     94 C30        -3.1450   -2.7210   -3.4030 c3        1 MOL     -0.080054
     95 C31        -4.5750   -2.1980   -3.3880 c         1 MOL      0.541133
     96 O16        -5.3040   -2.3600   -4.4020 o         1 MOL     -0.537265
     97 C32        -2.1970   -1.7790   -4.1290 c3        1 MOL      0.137679
     98 C33        -0.8230   -2.5160   -4.3810 c3        1 MOL     -0.147573
     99 C34        -1.9020   -0.4950   -3.2600 c3        1 MOL     -0.147573
    100 H41        -2.2140   -2.3230   -1.5020 hn        1 MOL      0.100771
    101 H42        -3.1890   -3.6030   -4.0310 h1        1 MOL      0.083862
    102 H43        -2.5880   -1.5120   -5.1070 hc        1 MOL      0.016029
    103 H44        -0.4230   -2.7300   -3.3900 hc        1 MOL      0.028346
    104 H45        -0.9370   -3.4080   -4.9960 hc        1 MOL      0.028346
    105 H46        -0.1390   -1.8740   -4.9340 hc        1 MOL      0.028346
    106 H47        -1.5280   -0.7800   -2.2770 hc        1 MOL      0.028346
    107 H48        -1.2190    0.1940   -3.7470 hc        1 MOL      0.028346
    108 H49        -2.8110    0.1220   -3.1850 hc        1 MOL      0.028346
    109 N10        -4.9610   -1.5130   -2.3350 n         1 MOL     -0.441452
    110 C35        -6.3810   -1.0390   -2.1900 c3        1 MOL      0.119184
    111 C36        -6.5510    0.4710   -1.7140 c         1 MOL      0.512801
    112 O17        -7.2940    1.1850   -2.4180 o         1 MOL     -0.523582
    113 C37        -7.1210   -1.8110   -1.1160 c3        1 MOL     -0.296576
    114 C38        -7.2550   -3.2850   -1.3360 c         1 MOL      0.702134
    115 N11        -7.0620   -4.1150   -0.3340 n         1 MOL     -0.776607
    116 O18        -7.5970   -3.7220   -2.4040 o         1 MOL     -0.540242
    117 H50        -4.3100   -1.3170   -1.5870 hn        1 MOL      0.190112
    118 H51        -6.8770   -1.1420   -3.1530 h1        1 MOL      0.088056
    119 H52        -8.1020   -1.3310   -1.1870 hc        1 MOL      0.101189
    120 H53        -6.6160   -1.6060   -0.1720 hc        1 MOL      0.101189
    121 H54        -7.1330   -3.7490    0.6060 hn        1 MOL      0.356126
    122 H55        -7.1060   -5.1030   -0.5580 hn        1 MOL      0.356126
    123 N12        -5.8680    0.8400   -0.6110 n         1 MOL     -0.474345
    124 C39        -6.0290    2.1590    0.0300 c3        1 MOL      0.063017
    125 C40        -4.6060    2.7710    0.3780 c         1 MOL      0.645037
    126 O19        -3.5500    2.1360    0.3360 o         1 MOL     -0.545003
    127 C41        -6.8300    2.0110    1.3550 c3        1 MOL     -0.122742
    128 C42        -8.0520    1.1260    1.2360 ca        1 MOL     -0.090210
    129 C43        -9.2030    1.4980    0.5450 ca        1 MOL     -0.048533
    130 C44        -7.9400   -0.1780    1.8030 ca        1 MOL     -0.048533
    131 C45       -10.3480    0.6820    0.5510 ca        1 MOL     -0.341519
    132 C46        -9.0470   -1.0260    1.6360 ca        1 MOL     -0.341519
    133 C47       -10.2330   -0.6330    1.0020 ca        1 MOL      0.440165
    134 O20       -11.2830   -1.4090    0.8520 oh        1 MOL     -0.536539
    135 H56        -5.1430    0.2150   -0.2850 hn        1 MOL      0.304647
    136 H57        -6.4600    2.8530   -0.6800 h1        1 MOL      0.057697
    137 H58        -7.1660    3.0060    1.6280 hc        1 MOL      0.090993
    138 H59        -6.1200    1.6380    2.0870 hc        1 MOL      0.090993
    139 H60        -9.3290    2.4820    0.0960 ha        1 MOL      0.120842
    140 H61        -7.0290   -0.4820    2.2950 ha        1 MOL      0.120842
    141 H62       -11.2830    1.0470    0.1570 ha        1 MOL      0.140521
    142 H63        -8.9080   -2.0220    2.0230 ha        1 MOL      0.140521
    143 H64       -12.0580   -0.8880    0.6260 ho        1 MOL      0.390721
    144 N13        -4.6080    4.1180    0.4960 n         1 MOL     -0.664720
    145 C48        -3.5380    5.1390    0.8250 c3        1 MOL      0.004857
    146 C49        -2.1920    5.1680    0.0570 c         1 MOL      0.320331
    147 O21        -1.3680    6.0980    0.2560 o         1 MOL     -0.458932
    148 C50        -3.1960    4.9920    2.3290 c3        1 MOL      0.177696
    149 C51        -4.4850    5.3150    3.1670 c3        1 MOL      0.005311
    150 C52        -4.2950    5.6000    4.5990 c         1 MOL      0.610559
    151 O22        -3.6560    6.6250    4.8940 o         1 MOL     -0.718646
    152 O23        -4.5580    4.7530    5.5030 o         1 MOL     -0.718646
    153 H65        -5.5650    4.4350    0.4910 hn        1 MOL      0.328391
    154 H66        -3.9370    6.1460    0.7450 h1        1 MOL      0.112898
    155 H67        -2.5280    5.8370    2.4930 hc        1 MOL      0.010146
    156 H68        -2.8040    4.0110    2.6320 hc        1 MOL      0.010146
    157 H69        -5.2390    4.5400    3.1000 hc        1 MOL     -0.077375
    158 H70        -4.9060    6.2420    2.7750 hc        1 MOL     -0.077375
    159 N14        -2.0010    4.1940   -0.8360 n         1 MOL     -0.341970
    160 C53        -0.8490    4.1800   -1.8600 c3        1 MOL      0.038856
    161 C54        -1.0610    4.9590   -3.1370 c         1 MOL      0.483793
    162 O24        -0.1800    5.7250   -3.5070 o         1 MOL     -0.534089
    163 C55        -0.4850    2.7200   -2.1420 c3        1 MOL     -0.052560
    164 C56        -0.3500    1.7300   -0.9780 c3        1 MOL      0.010638
    165 C57         0.6720    2.1920    0.0150 c         1 MOL      0.570343
    166 O25         1.8440    1.8750    0.0210 o         1 MOL     -0.612544
    167 O26         0.2370    2.8700    0.9920 o         1 MOL     -0.612544
    168 H71        -2.6570    3.4380   -0.9700 hn        1 MOL      0.279560
    169 H72         0.0050    4.6240   -1.3470 h1        1 MOL      0.129348
    170 H73         0.4160    2.6750   -2.7470 hc        1 MOL     -0.007194
    171 H74        -1.3400    2.2760   -2.6550 hc        1 MOL     -0.007194
    172 H75         0.0540    0.8500   -1.4810 hc        1 MOL      0.022773
    173 H76        -1.3040    1.4440   -0.5320 hc        1 MOL      0.022773
    174 N15        -2.2620    4.8940   -3.6510 n         1 MOL     -0.264556
    175 C58        -2.6870    5.7090   -4.7700 c3        1 MOL     -0.245204
    176 H77        -3.5870    6.2600   -4.4970 h1        1 MOL      0.104143
    177 H78        -1.8960    6.4130   -5.0300 h1        1 MOL      0.104143
    178 H79        -2.9000    5.0690   -5.6270 h1        1 MOL      0.104143
    179 H80        -2.9410    4.2350   -3.2950 hn        1 MOL      0.247078
    180 Ca1         4.2310    1.7350    1.1560 Ca        1 MOL      1.816199
    181 O27         5.9390    0.1250    2.5910 oh        1 MOL     -0.809150
    182 H81         6.3440    0.3200    3.4410 ho        1 MOL      0.392054
    183 H82         6.6280   -0.3150    2.1000 ho        1 MOL      0.392054
    184 O28         3.2220    4.2560    1.4410 oh        1 MOL     -0.809150
    185 H83         2.3580    4.6630    1.4800 ho        1 MOL      0.392054
    186 H84         3.7200    4.8120    0.8440 ho        1 MOL      0.392054
    187 O29         1.9410    1.7530    2.8560 oh        1 MOL     -0.809150
    188 H85         1.3010    1.8900    2.1500 ho        1 MOL      0.392054
    189 H86         1.5610    2.2260    3.6000 ho        1 MOL      0.392054
    190 O30         4.6230    2.8260    3.6750 oh        1 MOL     -0.809150
    191 H87         4.2870    2.8500    4.5710 ho        1 MOL      0.392054
    192 H88         5.4720    3.2550    3.7270 ho        1 MOL      0.392054
@<TRIPOS>BOND
     1    1    2 1   
     2    1    4 1   
     3    1    5 1   
     4    1    6 1   
     5    2    3 2   
     6    2    7 1   
     7    7    8 1   
     8    7   15 1   
     9    8    9 1   
    10    8   11 1   
    11    8   16 1   
    12    9   10 2   
    13    9   19 1   
    14   11   12 1   
    15   11   17 1   
    16   11   18 1   
    17   12   13 1   
    18   12   14 1   
    19   19   20 1   
    20   19   27 1   
    21   20   21 1   
    22   20   23 1   
    23   20   28 1   
    24   21   22 2   
    25   21   38 1   
    26   23   24 1   
    27   23   25 1   
    28   23   29 1   
    29   24   26 1   
    30   24   30 1   
    31   24   31 1   
    32   25   32 1   
    33   25   33 1   
    34   25   34 1   
    35   26   35 1   
    36   26   36 1   
    37   26   37 1   
    38   38   39 1   
    39   38   46 1   
    40   39   40 1   
    41   39   42 1   
    42   39   47 1   
    43   40   41 2   
    44   40   50 1   
    45   42   43 1   
    46   42   48 1   
    47   42   49 1   
    48   43   44 1   
    49   43   45 1   
    50   50   51 1   
    51   50   54 1   
    52   51   52 1   
    53   51   55 1   
    54   51   56 1   
    55   52   53 2   
    56   52   57 1   
    57   57   58 1   
    58   57   65 1   
    59   58   59 1   
    60   58   61 1   
    61   58   66 1   
    62   59   60 2   
    63   59   69 1   
    64   61   62 1   
    65   61   67 1   
    66   61   68 1   
    67   62   63 1   
    68   62   64 1   
    69   69   70 1   
    70   69   73 1   
    71   70   71 1   
    72   70   74 1   
    73   70   75 1   
    74   71   72 2   
    75   71   76 1   
    76   76   77 1   
    77   76   85 1   
    78   77   78 1   
    79   77   80 1   
    80   77   86 1   
    81   78   79 2   
    82   78   93 1   
    83   80   81 1   
    84   80   87 1   
    85   80   88 1   
    86   81   82 1   
    87   81   89 1   
    88   81   90 1   
    89   82   83 1   
    90   82   84 2   
    91   83   91 1   
    92   83   92 1   
    93   93   94 1   
    94   93  100 1   
    95   94   95 1   
    96   94   97 1   
    97   94  101 1   
    98   95   96 2   
    99   95  109 1   
   100   97   98 1   
   101   97   99 1   
   102   97  102 1   
   103   98  103 1   
   104   98  104 1   
   105   98  105 1   
   106   99  106 1   
   107   99  107 1   
   108   99  108 1   
   109  109  110 1   
   110  109  117 1   
   111  110  111 1   
   112  110  113 1   
   113  110  118 1   
   114  111  112 2   
   115  111  123 1   
   116  113  114 1   
   117  113  119 1   
   118  113  120 1   
   119  114  115 1   
   120  114  116 2   
   121  115  121 1   
   122  115  122 1   
   123  123  124 1   
   124  123  135 1   
   125  124  125 1   
   126  124  127 1   
   127  124  136 1   
   128  125  126 2   
   129  125  144 1   
   130  127  128 1   
   131  127  137 1   
   132  127  138 1   
   133  128  129 ar  
   134  128  130 ar  
   135  129  131 ar  
   136  129  139 1   
   137  130  132 ar  
   138  130  140 1   
   139  131  133 ar  
   140  131  141 1   
   141  132  133 ar  
   142  132  142 1   
   143  133  134 1   
   144  134  143 1   
   145  144  145 1   
   146  144  153 1   
   147  145  146 1   
   148  145  148 1   
   149  145  154 1   
   150  146  147 2   
   151  146  159 1   
   152  148  149 1   
   153  148  155 1   
   154  148  156 1   
   155  149  150 1   
   156  149  157 1   
   157  149  158 1   
   158  150  151 1   
   159  150  152 1   
   160  159  160 1   
   161  159  168 1   
   162  160  161 1   
   163  160  163 1   
   164  160  169 1   
   165  161  162 2   
   166  161  174 1   
   167  163  164 1   
   168  163  170 1   
   169  163  171 1   
   170  164  165 1   
   171  164  172 1   
   172  164  173 1   
   173  165  166 1   
   174  165  167 1   
   175  174  175 1   
   176  174  179 1   
   177  175  176 1   
   178  175  177 1   
   179  175  178 1   
   180  181  182 1   
   181  181  183 1   
   182  184  185 1   
   183  184  186 1   
   184  187  188 1   
   185  187  189 1   
   186  190  191 1   
   187  190  192 1   
@<TRIPOS>SUBSTRUCTURE
     1 MOL         1 TEMP              0 ****  ****    0 ROOT
