@<TRIPOS>MOLECULE
MOL
  182   178     1     0     0
SMALL
resp


@<TRIPOS>ATOM
      1 C1          0.7580   -3.6470    5.9430 c3        1 MOL     -0.302142
      2 C2          0.9050   -3.6650    4.4490 c         1 MOL      0.710500
      3 O1          0.0720   -4.2020    3.7160 o         1 MOL     -0.552791
      4 H1         -0.2750   -3.8740    6.2090 hc        1 MOL      0.087891
      5 H2          1.4180   -4.3940    6.3830 hc        1 MOL      0.087891
      6 H3          1.0210   -2.6600    6.3220 hc        1 MOL      0.087891
      7 N1          1.9560   -3.0450    3.9400 n         1 MOL     -0.514539
      8 C3          2.1770   -2.8450    2.5340 c3        1 MOL     -0.040125
      9 C4          2.3220   -4.1670    1.7860 c         1 MOL      0.549322
     10 O2          2.5720   -5.2270    2.3720 o         1 MOL     -0.532091
     11 C5          3.4760   -2.0530    2.3850 c3        1 MOL     -0.147652
     12 C6          3.6060   -1.1840    1.1810 c         1 MOL      0.633560
     13 O3          4.0800   -0.0120    1.2180 o         1 MOL     -0.735547
     14 O4          3.2170   -1.5940    0.0830 o         1 MOL     -0.735547
     15 H4          2.7090   -2.7360    4.5450 hn        1 MOL      0.316349
     16 H5          1.3500   -2.2850    2.0900 h1        1 MOL     -0.133234
     17 H6          4.3160   -2.7430    2.4550 hc        1 MOL      0.084504
     18 H7          3.5340   -1.3230    3.1910 hc        1 MOL      0.084504
     19 N2          2.2350   -4.2160    0.4240 n         1 MOL     -0.206259
     20 C7          2.5150   -5.3160   -0.4680 c3        1 MOL     -0.125981
     21 C8          3.8340   -5.1390   -1.3300 c         1 MOL      0.605776
     22 O5          4.3560   -6.1500   -1.7280 o         1 MOL     -0.574571
     23 C9          1.4090   -5.7100   -1.4490 c3        1 MOL      0.121865
     24 C10         0.2880   -6.6130   -0.9140 c3        1 MOL     -0.024721
     25 C11        -0.6900   -7.0260   -1.9980 c3        1 MOL     -0.042016
     26 C12        -1.6100   -8.2330   -1.5470 c3        1 MOL      0.034604
     27 N3         -2.6390   -8.4660   -2.5440 n4        1 MOL     -0.175775
     28 H8          1.9450   -3.3050    0.1040 hn        1 MOL      0.239621
     29 H9          2.7370   -6.1380    0.2150 h1        1 MOL      0.106806
     30 H10         1.8730   -6.2130   -2.2880 hc        1 MOL     -0.032050
     31 H11         0.9990   -4.7880   -1.8720 hc        1 MOL     -0.032050
     32 H12        -0.2300   -6.0770   -0.1210 hc        1 MOL      0.030547
     33 H13         0.7920   -7.4500   -0.4470 hc        1 MOL      0.030547
     34 H14        -0.0880   -7.2890   -2.8680 hc        1 MOL      0.035815
     35 H15        -1.3490   -6.1970   -2.2410 hc        1 MOL      0.035815
     36 H16        -2.0180   -7.9900   -0.5680 hx        1 MOL      0.074805
     37 H17        -1.0150   -9.1180   -1.3310 hx        1 MOL      0.074805
     38 H18        -3.4050   -8.9860   -2.1250 hn        1 MOL      0.225317
     39 H19        -2.9590   -7.6420   -3.0360 hn        1 MOL      0.225317
     40 H20        -2.3450   -9.0730   -3.2930 hn        1 MOL      0.225317
     41 N4          4.3010   -3.9180   -1.5180 n         1 MOL     -0.357727
     42 C13         5.4890   -3.5610   -2.2900 c3        1 MOL      0.060127
     43 C14         6.5710   -2.7400   -1.5500 c         1 MOL      0.332125
     44 O6          7.6550   -2.4670   -2.0990 o         1 MOL     -0.521100
     45 C15         4.9910   -2.6950   -3.4600 c3        1 MOL     -0.261997
     46 C16         4.2600   -1.4410   -3.0130 c         1 MOL      0.929300
     47 O7          4.8570   -0.5920   -2.2750 o         1 MOL     -0.795201
     48 O8          3.1440   -1.2260   -3.5230 o         1 MOL     -0.795201
     49 H21         3.9040   -3.2200   -0.8950 hn        1 MOL      0.083997
     50 H22         6.0200   -4.4110   -2.7160 h1        1 MOL      0.127613
     51 H23         4.3420   -3.2810   -4.1110 hc        1 MOL      0.069607
     52 H24         5.8180   -2.3840   -4.0920 hc        1 MOL      0.069607
     53 N5          6.3800   -2.4520   -0.2890 n         1 MOL     -0.172507
     54 C17         7.3200   -1.9510    0.6660 c3        1 MOL     -0.096273
     55 C18         7.4640   -0.4850    0.9050 c         1 MOL      0.431904
     56 O9          8.1810   -0.0650    1.8190 o         1 MOL     -0.523658
     57 H25         5.4610   -2.5930    0.1130 hn        1 MOL      0.198281
     58 H26         8.3170   -2.3300    0.4320 h1        1 MOL      0.095569
     59 H27         7.1120   -2.4930    1.5910 h1        1 MOL      0.095569
     60 N6          6.7990    0.3380    0.0810 n         1 MOL     -0.164252
     61 C19         7.1930    1.7370   -0.0980 c3        1 MOL     -0.063005
     62 C20         5.9450    2.6210   -0.3860 c         1 MOL      0.529908
     63 O10         4.9530    2.1670   -0.9480 o         1 MOL     -0.496147
     64 C21         8.2250    1.8270   -1.2490 c3        1 MOL     -0.081572
     65 C22         9.3870    0.8360   -1.1860 c         1 MOL      0.625551
     66 N7          9.3890   -0.1330   -2.0270 n         1 MOL     -0.782023
     67 O11        10.2970    1.0210   -0.4100 o         1 MOL     -0.558777
     68 H28         6.1980   -0.0400   -0.6390 hn        1 MOL      0.278539
     69 H29         7.6650    2.1310    0.8000 h1        1 MOL      0.072444
     70 H30         8.6660    2.8300   -1.2510 hc        1 MOL      0.015861
     71 H31         7.7230    1.7260   -2.2110 hc        1 MOL      0.015861
     72 H32         8.5750   -0.2660   -2.6020 hn        1 MOL      0.381892
     73 H33        10.1010   -0.7950   -1.7680 hn        1 MOL      0.381892
     74 N8          6.1130    3.9180   -0.0920 n         1 MOL     -0.403097
     75 C23         5.1910    5.1170   -0.2820 c3        1 MOL     -0.345910
     76 C24         3.9820    4.9960    0.5790 c         1 MOL      0.802373
     77 O12         3.9890    4.9960    1.8250 o         1 MOL     -0.546808
     78 H34         6.9900    4.1520    0.3520 hn        1 MOL      0.330036
     79 H35         4.9320    5.0980   -1.3380 h1        1 MOL      0.167732
     80 H36         5.7110    6.0220    0.0400 h1        1 MOL      0.167732
     81 N9          2.8300    5.0900   -0.1160 n         1 MOL     -0.879500
     82 C25         1.5240    4.8900    0.5580 c3        1 MOL      0.649050
     83 C26         1.4310    3.4470    1.0800 c         1 MOL      0.413402
     84 O13         2.1930    2.5360    0.7470 o         1 MOL     -0.540959
     85 C27         0.3910    5.4720   -0.2300 c3        1 MOL     -0.481509
     86 C28         0.3970    6.9830   -0.5500 ca        1 MOL      0.283785
     87 C29         0.3670    7.4920   -1.9110 ca        1 MOL     -0.278096
     88 C30         0.1750    7.9580    0.4400 ca        1 MOL     -0.278096
     89 C31         0.3930    8.8920   -2.1390 ca        1 MOL     -0.168765
     90 C32         0.0720    9.3400    0.2060 ca        1 MOL     -0.168765
     91 C33         0.1170    9.8060   -1.1180 ca        1 MOL      0.240844
     92 O14         0.1330   11.1400   -1.3570 oh        1 MOL     -0.427263
     93 H37         2.8540    5.1190   -1.1310 hn        1 MOL      0.357813
     94 H38         1.5880    5.4520    1.4800 h1        1 MOL     -0.005008
     95 H39        -0.6040    5.3620    0.2130 hc        1 MOL      0.114480
     96 H40         0.4610    4.9520   -1.1820 hc        1 MOL      0.114480
     97 H41         0.3210    6.8530   -2.7710 ha        1 MOL      0.144271
     98 H42         0.1120    7.5710    1.4510 ha        1 MOL      0.144271
     99 H43         0.5480    9.1840   -3.1680 ha        1 MOL      0.147472
    100 H44        -0.0720   10.0180    1.0330 ha        1 MOL      0.147472
    101 H45        -0.0150   11.3000   -2.2920 ho        1 MOL      0.341826
    102 N10         0.4390    3.1590    1.9010 n         1 MOL     -0.650186
    103 C34         0.0950    1.8230    2.4470 c3        1 MOL      0.345307
    104 C35        -0.1870    0.7000    1.3420 c         1 MOL      0.037669
    105 O15         0.6800    0.4140    0.5720 o         1 MOL     -0.075739
    106 C36         1.1960    1.3590    3.4820 c3        1 MOL      0.030521
    107 C37         0.7030    0.0750    4.2000 c3        1 MOL      0.031564
    108 C38         1.4280    2.5010    4.5230 c3        1 MOL     -0.241741
    109 C39        -0.5630    0.2460    5.0520 c3        1 MOL     -0.271333
    110 H46        -0.1690    3.9200    2.1690 hn        1 MOL      0.305018
    111 H47        -0.8110    1.8970    3.0420 h1        1 MOL      0.014362
    112 H48         2.1250    1.1480    2.9490 hc        1 MOL      0.091276
    113 H49         1.4920   -0.2460    4.8820 hc        1 MOL      0.029612
    114 H50         0.5380   -0.7440    3.5150 hc        1 MOL      0.029612
    115 H51         0.5180    2.8910    4.9700 hc        1 MOL      0.073776
    116 H52         2.1510    2.3340    5.3230 hc        1 MOL      0.073776
    117 H53         1.9130    3.2910    3.9580 hc        1 MOL      0.073776
    118 H54        -0.5240   -0.6830    5.6130 hc        1 MOL      0.062660
    119 H55        -0.3870    1.0860    5.7300 hc        1 MOL      0.062660
    120 H56        -1.4980    0.2880    4.5010 hc        1 MOL      0.062660
    121 N11        -1.3120   -0.0640    1.4640 n         1 MOL     -0.296449
    122 C40        -1.6980   -1.3070    0.6500 c3        1 MOL     -0.016629
    123 C41        -3.1070   -1.3360    0.1950 c         1 MOL      0.618160
    124 O16        -3.4430   -2.0930   -0.7390 o         1 MOL     -0.563623
    125 C42        -1.4050   -2.5170    1.4520 c3        1 MOL      0.294516
    126 O17        -1.7790   -2.3950    2.8120 oh        1 MOL     -0.613563
    127 H57        -1.8510    0.1350    2.2900 hn        1 MOL      0.278077
    128 H58        -1.1660   -1.3010   -0.3100 h1        1 MOL      0.071895
    129 H59        -0.3330   -2.7130    1.3740 h1        1 MOL     -0.042084
    130 H60        -1.9260   -3.3150    0.9260 h1        1 MOL     -0.042084
    131 H61        -1.6540   -3.2380    3.2500 ho        1 MOL      0.407075
    132 N12        -3.9140   -0.3520    0.5970 n         1 MOL     -0.587253
    133 C43        -5.3610   -0.3530    0.1480 c3        1 MOL      0.307614
    134 C44        -5.5860    0.0890   -1.2990 c         1 MOL      0.509950
    135 O18        -4.6480    0.6730   -1.9370 o         1 MOL     -0.559302
    136 C45        -6.3090    0.2490    1.2390 c3        1 MOL     -0.248192
    137 H62        -3.6560    0.4350    1.1810 hn        1 MOL      0.269502
    138 H63        -5.6210   -1.4110    0.2040 h1        1 MOL      0.059019
    139 H64        -6.5440   -0.5440    1.9530 hc        1 MOL      0.083374
    140 H65        -5.8680    1.1050    1.7480 hc        1 MOL      0.083374
    141 H66        -7.1080    0.7780    0.7330 hc        1 MOL      0.083374
    142 N13        -6.7180   -0.2250   -1.9720 n         1 MOL     -0.596268
    143 C46        -7.9520   -0.8900   -1.5050 c3        1 MOL      0.320479
    144 C47        -9.1370   -0.3990   -2.3420 c         1 MOL      0.320111
    145 O19        -8.9390   -0.1610   -3.5330 o         1 MOL     -0.512478
    146 C48        -7.8830   -2.4000   -1.7420 c3        1 MOL     -0.177876
    147 H67        -6.6840   -0.1300   -2.9760 hn        1 MOL      0.341923
    148 H68        -8.0620   -0.7390   -0.4280 h1        1 MOL     -0.077960
    149 H69        -8.7320   -2.8580   -1.2310 hc        1 MOL      0.057874
    150 H70        -8.0440   -2.7310   -2.7690 hc        1 MOL      0.057874
    151 H71        -6.9710   -2.9030   -1.4070 hc        1 MOL      0.057874
    152 N14       -10.3180   -0.2750   -1.7710 n         1 MOL     -0.351838
    153 C49       -10.6100   -0.4720   -0.3550 c3        1 MOL      0.125650
    154 C50       -10.0030    0.4770    0.6660 c         1 MOL      0.506578
    155 O20        -9.4940    0.0750    1.7280 o         1 MOL     -0.552631
    156 C51       -12.0930   -0.7380   -0.1170 c3        1 MOL     -0.324703
    157 C52       -12.9630    0.5550   -0.0810 c3        1 MOL     -0.262363
    158 C53       -14.4640    0.4640   -0.1810 c         1 MOL      0.740207
    159 O21       -15.1180    1.3280   -0.7520 o         1 MOL     -0.661471
    160 O22       -15.0460   -0.4780    0.4090 o         1 MOL     -0.661471
    161 H72       -11.1220   -0.0430   -2.3400 hn        1 MOL      0.318298
    162 H73       -10.2170   -1.4600   -0.1120 h1        1 MOL      0.008030
    163 H74       -12.1900   -1.2090    0.8690 hc        1 MOL      0.140627
    164 H75       -12.3350   -1.4560   -0.8980 hc        1 MOL      0.140627
    165 H76       -12.5540    1.1980   -0.8700 hc        1 MOL      0.073448
    166 H77       -12.8210    1.0070    0.9020 hc        1 MOL      0.073448
    167 N15        -9.9120    1.7350    0.2810 n         1 MOL     -0.284201
    168 C54        -9.3660    2.8130    1.1370 c3        1 MOL     -0.265232
    169 H78        -9.7410    2.6920    2.1530 h1        1 MOL      0.123981
    170 H79        -8.2780    2.7570    1.1440 h1        1 MOL      0.123981
    171 H80        -9.6790    3.7810    0.7470 h1        1 MOL      0.123981
    172 H81       -10.3070    1.9960   -0.6140 hn        1 MOL      0.262786
    173 Ca1         2.6850    0.6830   -1.1100 Ca        1 MOL      1.731951
    174 O23         1.0740   -1.4810   -1.7910 oh        1 MOL     -0.886992
    175 H82         0.3440   -2.0870   -1.8350 ho        1 MOL      0.430999
    176 H83         1.6610   -1.7610   -2.5070 ho        1 MOL      0.430999
    177 O24         2.8310    1.9740   -3.4540 oh        1 MOL     -0.886992
    178 H84         2.1720    1.8860   -4.1450 ho        1 MOL      0.430999
    179 H85         3.6080    2.3130   -3.9010 ho        1 MOL      0.430999
    180 O25         0.2230    1.8820   -2.0830 oh        1 MOL     -0.886992
    181 H86        -0.0040    2.6000   -2.6790 ho        1 MOL      0.430999
    182 H87        -0.4770    1.2470   -2.1750 ho        1 MOL      0.430999
@<TRIPOS>BOND
     1    1    2 1   
     2    1    4 1   
     3    1    5 1   
     4    1    6 1   
     5    2    3 2   
     6    2    7 1   
     7    7    8 1   
     8    7   15 1   
     9    8    9 1   
    10    8   11 1   
    11    8   16 1   
    12    9   10 2   
    13    9   19 1   
    14   11   12 1   
    15   11   17 1   
    16   11   18 1   
    17   12   13 1   
    18   12   14 1   
    19   19   20 1   
    20   19   28 1   
    21   20   21 1   
    22   20   23 1   
    23   20   29 1   
    24   21   22 2   
    25   21   41 1   
    26   23   24 1   
    27   23   30 1   
    28   23   31 1   
    29   24   25 1   
    30   24   32 1   
    31   24   33 1   
    32   25   26 1   
    33   25   34 1   
    34   25   35 1   
    35   26   27 1   
    36   26   36 1   
    37   26   37 1   
    38   27   38 1   
    39   27   39 1   
    40   27   40 1   
    41   41   42 1   
    42   41   49 1   
    43   42   43 1   
    44   42   45 1   
    45   42   50 1   
    46   43   44 2   
    47   43   53 1   
    48   45   46 1   
    49   45   51 1   
    50   45   52 1   
    51   46   47 1   
    52   46   48 1   
    53   53   54 1   
    54   53   57 1   
    55   54   55 1   
    56   54   58 1   
    57   54   59 1   
    58   55   56 2   
    59   55   60 1   
    60   60   61 1   
    61   60   68 1   
    62   61   62 1   
    63   61   64 1   
    64   61   69 1   
    65   62   63 2   
    66   62   74 1   
    67   64   65 1   
    68   64   70 1   
    69   64   71 1   
    70   65   66 1   
    71   65   67 2   
    72   66   72 1   
    73   66   73 1   
    74   74   75 1   
    75   74   78 1   
    76   75   76 1   
    77   75   79 1   
    78   75   80 1   
    79   76   77 2   
    80   76   81 1   
    81   81   82 1   
    82   81   93 1   
    83   82   83 1   
    84   82   85 1   
    85   82   94 1   
    86   83   84 2   
    87   83  102 1   
    88   85   86 1   
    89   85   95 1   
    90   85   96 1   
    91   86   87 ar  
    92   86   88 ar  
    93   87   89 ar  
    94   87   97 1   
    95   88   90 ar  
    96   88   98 1   
    97   89   91 ar  
    98   89   99 1   
    99   90   91 ar  
   100   90  100 1   
   101   91   92 1   
   102   92  101 1   
   103  102  103 1   
   104  102  110 1   
   105  103  104 1   
   106  103  106 1   
   107  103  111 1   
   108  104  105 2   
   109  104  121 1   
   110  106  107 1   
   111  106  108 1   
   112  106  112 1   
   113  107  109 1   
   114  107  113 1   
   115  107  114 1   
   116  108  115 1   
   117  108  116 1   
   118  108  117 1   
   119  109  118 1   
   120  109  119 1   
   121  109  120 1   
   122  121  122 1   
   123  121  127 1   
   124  122  123 1   
   125  122  125 1   
   126  122  128 1   
   127  123  124 2   
   128  123  132 1   
   129  125  126 1   
   130  125  129 1   
   131  125  130 1   
   132  126  131 1   
   133  132  133 1   
   134  132  137 1   
   135  133  134 1   
   136  133  136 1   
   137  133  138 1   
   138  134  135 2   
   139  134  142 1   
   140  136  139 1   
   141  136  140 1   
   142  136  141 1   
   143  142  143 1   
   144  142  147 1   
   145  143  144 1   
   146  143  146 1   
   147  143  148 1   
   148  144  145 2   
   149  144  152 1   
   150  146  149 1   
   151  146  150 1   
   152  146  151 1   
   153  152  153 1   
   154  152  161 1   
   155  153  154 1   
   156  153  156 1   
   157  153  162 1   
   158  154  155 2   
   159  154  167 1   
   160  156  157 1   
   161  156  163 1   
   162  156  164 1   
   163  157  158 1   
   164  157  165 1   
   165  157  166 1   
   166  158  159 1   
   167  158  160 1   
   168  167  168 1   
   169  167  172 1   
   170  168  169 1   
   171  168  170 1   
   172  168  171 1   
   173  174  175 1   
   174  174  176 1   
   175  177  178 1   
   176  177  179 1   
   177  180  181 1   
   178  180  182 1   
@<TRIPOS>SUBSTRUCTURE
     1 MOL         1 TEMP              0 ****  ****    0 ROOT
