@<TRIPOS>MOLECULE
MOL
  185   180     1     0     0
SMALL
resp


@<TRIPOS>ATOM
      1 C1          5.4280   -0.7560    5.3110 c3        1 MOL     -0.379547
      2 C2          4.4820   -0.4290    4.1510 c         1 MOL      0.730460
      3 O1          3.3180   -0.1200    4.3800 o         1 MOL     -0.606145
      4 H1          4.9870   -1.5390    5.9280 hc        1 MOL      0.095769
      5 H2          6.3840   -1.1010    4.9160 hc        1 MOL      0.095769
      6 H3          5.5850    0.1370    5.9160 hc        1 MOL      0.095769
      7 N1          4.8830   -0.6980    2.8860 n         1 MOL     -0.581352
      8 C3          3.9920   -0.6530    1.6830 c3        1 MOL      0.173534
      9 C4          3.8780   -2.0220    1.0850 c         1 MOL      0.122762
     10 O2          2.8510   -2.2900    0.5020 o         1 MOL     -0.318313
     11 C5          4.5390    0.4010    0.7370 c3        1 MOL     -0.271099
     12 C6          6.0590    0.1370    0.3900 c         1 MOL      0.664128
     13 O3          6.4270   -0.7660   -0.3850 o         1 MOL     -0.645802
     14 O4          6.9000    1.0140    0.8100 o         1 MOL     -0.645802
     15 H4          5.8050   -1.1030    2.8050 hn        1 MOL      0.301960
     16 H5          2.9940   -0.4130    2.0290 h1        1 MOL      0.106814
     17 H6          4.4030    1.4110    1.1270 hc        1 MOL      0.071767
     18 H7          3.8820    0.3840   -0.1380 hc        1 MOL      0.071767
     19 N2          4.8160   -2.9300    1.2570 n         1 MOL     -0.316283
     20 C7          4.6960   -4.3580    0.7220 c3        1 MOL      0.012730
     21 C8          4.9600   -4.5060   -0.8130 c         1 MOL      0.412774
     22 O5          5.3540   -5.5980   -1.2690 o         1 MOL     -0.523097
     23 C9          5.5670   -5.2390    1.6550 c3        1 MOL     -0.054878
     24 C10         5.0540   -5.2000    3.1050 c3        1 MOL      0.185697
     25 C11         5.4560   -6.2580    4.1110 c3        1 MOL     -0.141253
     26 C12         6.9570   -6.1480    4.4000 c3        1 MOL      0.149876
     27 N3          7.3940   -7.3120    5.1190 n4        1 MOL     -0.430376
     28 H8          5.7440   -2.6640    1.5710 hn        1 MOL      0.302611
     29 H9          3.6530   -4.6440    0.8730 h1        1 MOL      0.125805
     30 H10         6.6130   -4.9260    1.6180 hc        1 MOL      0.025644
     31 H11         5.4680   -6.2630    1.2890 hc        1 MOL      0.025644
     32 H12         3.9690   -5.1820    3.0150 hc        1 MOL     -0.068043
     33 H13         5.3290   -4.1900    3.4170 hc        1 MOL     -0.068043
     34 H14         5.2200   -7.2250    3.6790 hc        1 MOL      0.060043
     35 H15         4.8880   -6.2300    5.0480 hc        1 MOL      0.060043
     36 H16         7.0520   -5.2600    5.0290 hx        1 MOL      0.051654
     37 H17         7.5410   -6.0180    3.4910 hx        1 MOL      0.051654
     38 H18         8.3340   -7.0520    5.3790 hn        1 MOL      0.341130
     39 H19         6.9020   -7.4480    5.9910 hn        1 MOL      0.341130
     40 H20         7.3000   -8.1270    4.5260 hn        1 MOL      0.341130
     41 N4          4.8980   -3.4400   -1.5710 n         1 MOL     -0.183095
     42 C13         4.8830   -3.3170   -3.0740 c3        1 MOL     -0.152327
     43 C14         4.9770   -1.8830   -3.6970 c         1 MOL      0.541099
     44 O6          5.0860   -1.7090   -4.9030 o         1 MOL     -0.533552
     45 C15         3.5950   -3.9030   -3.5380 c3        1 MOL     -0.239814
     46 C16         2.3500   -3.5310   -2.7070 c         1 MOL      0.724281
     47 O7          1.8770   -2.3650   -2.8370 o         1 MOL     -0.747622
     48 O8          1.8790   -4.2440   -1.8140 o         1 MOL     -0.747622
     49 H21         4.6740   -2.6240   -1.0100 hn        1 MOL      0.145931
     50 H22         5.6270   -3.9460   -3.5750 h1        1 MOL      0.163041
     51 H23         3.6620   -4.9880   -3.5480 hc        1 MOL      0.089983
     52 H24         3.3260   -3.5090   -4.5160 hc        1 MOL      0.089983
     53 N5          5.0830   -0.8030   -2.9280 n         1 MOL     -0.298064
     54 C17         5.0740    0.6320   -3.3250 c3        1 MOL     -0.092814
     55 C18         6.4410    1.2560   -3.7230 c         1 MOL      0.749594
     56 O9          7.3400    0.5810   -4.1340 o         1 MOL     -0.532921
     57 H25         5.1540   -0.9830   -1.9370 hn        1 MOL      0.231618
     58 H26         4.7590    1.1230   -2.4030 h1        1 MOL      0.076592
     59 H27         4.2300    0.9170   -3.9630 h1        1 MOL      0.076592
     60 N6          6.5750    2.5900   -3.7210 n         1 MOL     -0.733911
     61 C19         5.7910    3.6520   -3.1710 c3        1 MOL      0.294753
     62 C20         6.0150    3.7070   -1.6070 c         1 MOL      0.512138
     63 O10         7.1660    3.6260   -1.1670 o         1 MOL     -0.462913
     64 C21         6.2420    5.0090   -3.7580 c3        1 MOL     -0.220145
     65 C22         5.2100    6.0790   -3.6490 c         1 MOL      0.630324
     66 N7          4.4200    6.2690   -4.6860 n         1 MOL     -0.767922
     67 O11         5.0840    6.7210   -2.5940 o         1 MOL     -0.549565
     68 H28         7.5370    2.8570   -3.9020 hn        1 MOL      0.339267
     69 H29         4.7410    3.4740   -3.4200 h1        1 MOL      0.003768
     70 H30         6.4460    4.8980   -4.8300 hc        1 MOL      0.070760
     71 H31         7.1910    5.2730   -3.3010 hc        1 MOL      0.070760
     72 H32         4.5820    5.8110   -5.5660 hn        1 MOL      0.360025
     73 H33         3.7650    7.0350   -4.6120 hn        1 MOL      0.360025
     74 N8          4.9680    3.8880   -0.7260 n         1 MOL     -0.555908
     75 C23         3.5880    3.7540   -1.1460 c3        1 MOL      0.088607
     76 C24         2.6510    4.2090   -0.0040 c         1 MOL      0.641355
     77 O12         3.0730    4.7670    1.0050 o         1 MOL     -0.491728
     78 H34         5.2450    3.9140    0.2480 hn        1 MOL      0.330587
     79 H35         3.4440    2.7050   -1.4020 h1        1 MOL     -0.003074
     80 H36         3.3330    4.3600   -2.0150 h1        1 MOL     -0.003074
     81 N9          1.3560    3.8070   -0.0390 n         1 MOL     -0.543501
     82 C25         0.3900    4.0850    0.9730 c3        1 MOL     -0.005469
     83 C26        -0.7510    3.0450    0.8930 c         1 MOL      0.686106
     84 O13        -0.7960    2.1640   -0.0390 o         1 MOL     -0.585685
     85 C27        -0.1320    5.5930    0.6960 c3        1 MOL     -0.291268
     86 C28        -0.7390    6.3650    1.8940 ca        1 MOL      0.048096
     87 C29        -2.1570    6.3600    2.0990 ca        1 MOL     -0.141438
     88 C30         0.0730    6.9550    2.9020 ca        1 MOL     -0.141438
     89 C31        -2.7120    6.9240    3.2230 ca        1 MOL     -0.264146
     90 C32        -0.5000    7.5130    4.0670 ca        1 MOL     -0.264146
     91 C33        -1.9010    7.3830    4.2830 ca        1 MOL      0.342351
     92 O14        -2.4950    7.8210    5.3770 oh        1 MOL     -0.469086
     93 H37         1.0770    3.2510   -0.8270 hn        1 MOL      0.295365
     94 H38         0.8960    4.1210    1.9290 h1        1 MOL      0.089111
     95 H39        -0.7390    5.6190   -0.2100 hc        1 MOL      0.131333
     96 H40         0.7970    6.1350    0.5120 hc        1 MOL      0.131333
     97 H41        -2.7770    6.1400    1.2480 ha        1 MOL      0.142509
     98 H42         1.1480    6.9340    2.7940 ha        1 MOL      0.142509
     99 H43        -3.7750    7.0700    3.3190 ha        1 MOL      0.142342
    100 H44         0.1230    7.8700    4.8730 ha        1 MOL      0.142342
    101 H45        -1.8440    7.9470    6.0710 ho        1 MOL      0.363823
    102 N10        -1.7760    3.1070    1.7940 n         1 MOL     -0.535777
    103 C34        -3.0090    2.2660    1.7580 c3        1 MOL      0.069586
    104 C35        -4.0830    2.8250    0.7980 c         1 MOL      0.677446
    105 O15        -4.1840    4.0250    0.5100 o         1 MOL     -0.526233
    106 C36        -3.5790    1.9510    3.2090 c3        1 MOL      0.026327
    107 C37        -2.6260    0.9490    3.9700 c3        1 MOL      0.054744
    108 C38        -3.6050    3.2460    4.0550 c3        1 MOL     -0.171236
    109 C39        -2.7750   -0.4590    3.4050 c3        1 MOL     -0.061602
    110 H46        -1.7300    3.8000    2.5220 hn        1 MOL      0.293596
    111 H47        -2.7340    1.2920    1.3570 h1        1 MOL      0.056376
    112 H48        -4.5470    1.4520    3.1980 hc        1 MOL      0.048326
    113 H49        -2.7740    0.9100    5.0420 hc        1 MOL     -0.006687
    114 H50        -1.5860    1.2370    3.8320 hc        1 MOL     -0.006687
    115 H51        -4.0100    3.0180    5.0430 hc        1 MOL      0.047192
    116 H52        -2.5830    3.6090    4.1520 hc        1 MOL      0.047192
    117 H53        -4.2330    4.0040    3.5900 hc        1 MOL      0.047192
    118 H54        -2.2580   -0.6320    2.4590 hc        1 MOL      0.007213
    119 H55        -2.3430   -1.2230    4.0620 hc        1 MOL      0.007213
    120 H56        -3.8290   -0.6720    3.2830 hc        1 MOL      0.007213
    121 N11        -4.9700    1.9080    0.2270 n         1 MOL     -0.633640
    122 C40        -6.0150    2.2920   -0.7280 c3        1 MOL      0.140326
    123 C41        -6.4060    1.1640   -1.6840 c         1 MOL      0.588973
    124 O16        -6.1230    0.0460   -1.2720 o         1 MOL     -0.480070
    125 C42        -7.3100    2.8230   -0.0580 c3        1 MOL      0.109110
    126 O17        -7.7210    1.8750    0.8760 oh        1 MOL     -0.583662
    127 H57        -4.8920    0.9220    0.4330 hn        1 MOL      0.322459
    128 H58        -5.7400    3.1200   -1.3790 h1        1 MOL      0.012420
    129 H59        -8.0620    2.9050   -0.8340 h1        1 MOL      0.018555
    130 H60        -7.1810    3.8120    0.3770 h1        1 MOL      0.018555
    131 H61        -8.4190    2.3150    1.3720 ho        1 MOL      0.405748
    132 N12        -7.0450    1.4790   -2.7690 n         1 MOL     -0.456613
    133 C43        -7.4920    0.5050   -3.7550 c3        1 MOL      0.001783
    134 C44        -8.3180   -0.6800   -3.2180 c         1 MOL      0.421782
    135 O18        -8.3550   -1.7810   -3.8240 o         1 MOL     -0.445224
    136 C45        -6.2980    0.0190   -4.6350 c3        1 MOL     -0.288672
    137 H62        -7.2410    2.4570   -2.9420 hn        1 MOL      0.305578
    138 H63        -8.1720    1.0180   -4.4360 h1        1 MOL      0.104291
    139 H64        -6.5170   -0.6170   -5.4950 hc        1 MOL      0.102110
    140 H65        -5.5970    0.8120   -4.9050 hc        1 MOL      0.102110
    141 H66        -5.6300   -0.6110   -4.0450 hc        1 MOL      0.102110
    142 N13        -8.9250   -0.4290   -2.0750 n         1 MOL     -0.465634
    143 C46        -9.5930   -1.4320   -1.3070 c3        1 MOL      0.201530
    144 C47        -8.7880   -2.6870   -0.9700 c         1 MOL      0.360813
    145 O19        -9.4040   -3.7330   -0.8340 o         1 MOL     -0.473935
    146 C48       -11.0690   -1.6300   -1.7550 c3        1 MOL     -0.206332
    147 H67        -8.8310    0.5230   -1.7300 hn        1 MOL      0.301339
    148 H68        -9.6750   -0.9000   -0.3610 h1        1 MOL      0.015483
    149 H69       -11.6160   -0.6830   -1.7810 hc        1 MOL      0.064887
    150 H70       -11.2370   -2.0790   -2.7350 hc        1 MOL      0.064887
    151 H71       -11.6050   -2.2920   -1.0780 hc        1 MOL      0.064887
    152 N14        -7.5040   -2.5610   -0.7590 n         1 MOL     -0.372429
    153 C49        -6.5140   -3.6330   -0.4920 c3        1 MOL      0.224288
    154 C50        -6.8030   -4.3680    0.8290 c         1 MOL      0.388585
    155 O20        -7.0770   -5.5480    0.7930 o         1 MOL     -0.506916
    156 C51        -5.1360   -3.0280   -0.6740 c3        1 MOL     -0.024184
    157 C52        -4.0890   -3.9070   -0.0970 c3        1 MOL     -0.007449
    158 C53        -2.7040   -3.3450   -0.3010 c         1 MOL      0.747949
    159 O21        -2.3560   -2.1760   -0.0440 o         1 MOL     -0.779422
    160 O22        -1.8120   -4.1460   -0.7570 o         1 MOL     -0.779422
    161 H72        -7.1390   -1.6320   -0.9580 hn        1 MOL      0.216448
    162 H73        -6.7260   -4.4230   -1.2160 h1        1 MOL      0.063309
    163 H74        -5.2260   -2.1610   -0.0240 hc        1 MOL      0.001687
    164 H75        -4.9200   -2.8980   -1.7280 hc        1 MOL      0.001687
    165 H76        -4.2240   -4.9010   -0.5250 hc        1 MOL     -0.013614
    166 H77        -4.1550   -4.0050    0.9860 hc        1 MOL     -0.013614
    167 N15        -6.9270   -3.6560    1.9490 n         1 MOL     -0.182074
    168 C54        -7.3300   -4.3740    3.1850 c3        1 MOL     -0.454451
    169 H78        -8.2550   -4.9190    3.0010 h1        1 MOL      0.166366
    170 H79        -6.5460   -5.0760    3.4700 h1        1 MOL      0.166366
    171 H80        -7.4850   -3.6550    3.9890 h1        1 MOL      0.166366
    172 H81        -6.7740   -2.6620    1.8490 hn        1 MOL      0.214013
    173 Ca1         0.3300   -2.5660   -0.6060 Ca        1 MOL      1.720556
    174 O23         0.6580   -4.6400    1.1520 oh        1 MOL     -0.810420
    175 H82         1.1250   -5.4390    0.9030 ho        1 MOL      0.403276
    176 H83         0.9090   -4.4970    2.0700 ho        1 MOL      0.403276
    177 O24        -1.1930   -1.8320   -2.9000 oh        1 MOL     -0.810420
    178 H84        -1.0810   -2.2050   -3.7710 ho        1 MOL      0.403276
    179 H85        -2.0590   -1.4330   -2.9220 ho        1 MOL      0.403276
    180 O25         1.0050    0.0420   -0.4120 oh        1 MOL     -0.810420
    181 H86         0.5930    0.6510    0.1990 ho        1 MOL      0.403276
    182 H87         0.8640    0.4430   -1.2760 ho        1 MOL      0.403276
    183 O26         0.4140   -1.4070    1.8890 oh        1 MOL     -0.810420
    184 H88         0.8480   -2.0050    2.5050 ho        1 MOL      0.403276
    185 H89         0.5040   -0.5430    2.2940 ho        1 MOL      0.403276
@<TRIPOS>BOND
     1    1    2 1   
     2    1    4 1   
     3    1    5 1   
     4    1    6 1   
     5    2    3 2   
     6    2    7 1   
     7    7    8 1   
     8    7   15 1   
     9    8    9 1   
    10    8   11 1   
    11    8   16 1   
    12    9   10 2   
    13    9   19 1   
    14   11   12 1   
    15   11   17 1   
    16   11   18 1   
    17   12   13 1   
    18   12   14 1   
    19   19   20 1   
    20   19   28 1   
    21   20   21 1   
    22   20   23 1   
    23   20   29 1   
    24   21   22 2   
    25   21   41 1   
    26   23   24 1   
    27   23   30 1   
    28   23   31 1   
    29   24   25 1   
    30   24   32 1   
    31   24   33 1   
    32   25   26 1   
    33   25   34 1   
    34   25   35 1   
    35   26   27 1   
    36   26   36 1   
    37   26   37 1   
    38   27   38 1   
    39   27   39 1   
    40   27   40 1   
    41   41   42 1   
    42   41   49 1   
    43   42   43 1   
    44   42   45 1   
    45   42   50 1   
    46   43   44 2   
    47   43   53 1   
    48   45   46 1   
    49   45   51 1   
    50   45   52 1   
    51   46   47 1   
    52   46   48 1   
    53   53   54 1   
    54   53   57 1   
    55   54   55 1   
    56   54   58 1   
    57   54   59 1   
    58   55   56 2   
    59   55   60 1   
    60   60   61 1   
    61   60   68 1   
    62   61   62 1   
    63   61   64 1   
    64   61   69 1   
    65   62   63 2   
    66   62   74 1   
    67   64   65 1   
    68   64   70 1   
    69   64   71 1   
    70   65   66 1   
    71   65   67 2   
    72   66   72 1   
    73   66   73 1   
    74   74   75 1   
    75   74   78 1   
    76   75   76 1   
    77   75   79 1   
    78   75   80 1   
    79   76   77 2   
    80   76   81 1   
    81   81   82 1   
    82   81   93 1   
    83   82   83 1   
    84   82   85 1   
    85   82   94 1   
    86   83   84 2   
    87   83  102 1   
    88   85   86 1   
    89   85   95 1   
    90   85   96 1   
    91   86   87 ar  
    92   86   88 ar  
    93   87   89 ar  
    94   87   97 1   
    95   88   90 ar  
    96   88   98 1   
    97   89   91 ar  
    98   89   99 1   
    99   90   91 ar  
   100   90  100 1   
   101   91   92 1   
   102   92  101 1   
   103  102  103 1   
   104  102  110 1   
   105  103  104 1   
   106  103  106 1   
   107  103  111 1   
   108  104  105 2   
   109  104  121 1   
   110  106  107 1   
   111  106  108 1   
   112  106  112 1   
   113  107  109 1   
   114  107  113 1   
   115  107  114 1   
   116  108  115 1   
   117  108  116 1   
   118  108  117 1   
   119  109  118 1   
   120  109  119 1   
   121  109  120 1   
   122  121  122 1   
   123  121  127 1   
   124  122  123 1   
   125  122  125 1   
   126  122  128 1   
   127  123  124 2   
   128  123  132 1   
   129  125  126 1   
   130  125  129 1   
   131  125  130 1   
   132  126  131 1   
   133  132  133 1   
   134  132  137 1   
   135  133  134 1   
   136  133  136 1   
   137  133  138 1   
   138  134  135 2   
   139  134  142 1   
   140  136  139 1   
   141  136  140 1   
   142  136  141 1   
   143  142  143 1   
   144  142  147 1   
   145  143  144 1   
   146  143  146 1   
   147  143  148 1   
   148  144  145 2   
   149  144  152 1   
   150  146  149 1   
   151  146  150 1   
   152  146  151 1   
   153  152  153 1   
   154  152  161 1   
   155  153  154 1   
   156  153  156 1   
   157  153  162 1   
   158  154  155 2   
   159  154  167 1   
   160  156  157 1   
   161  156  163 1   
   162  156  164 1   
   163  157  158 1   
   164  157  165 1   
   165  157  166 1   
   166  158  159 1   
   167  158  160 1   
   168  167  168 1   
   169  167  172 1   
   170  168  169 1   
   171  168  170 1   
   172  168  171 1   
   173  174  175 1   
   174  174  176 1   
   175  177  178 1   
   176  177  179 1   
   177  180  181 1   
   178  180  182 1   
   179  183  184 1   
   180  183  185 1   
@<TRIPOS>SUBSTRUCTURE
     1 MOL         1 TEMP              0 ****  ****    0 ROOT
