@<TRIPOS>MOLECULE
MOL
  198   191     1     0     0
SMALL
resp


@<TRIPOS>ATOM
      1 C1         -6.0900   -2.7870    5.3870 c3        1 MOL     -0.343591
      2 C2         -5.3470   -2.2540    4.1340 c         1 MOL      0.767193
      3 O1         -4.5330   -2.9530    3.5510 o         1 MOL     -0.634758
      4 H1         -6.9900   -2.1950    5.5550 hc        1 MOL      0.087009
      5 H2         -6.3660   -3.8300    5.2300 hc        1 MOL      0.087009
      6 H3         -5.4380   -2.7110    6.2570 hc        1 MOL      0.087009
      7 N1         -5.4960   -0.9940    3.8470 n         1 MOL     -0.592059
      8 C3         -5.0970   -0.3680    2.5720 c3        1 MOL      0.581677
      9 C4         -3.5390   -0.1390    2.3360 c         1 MOL      0.181410
     10 O2         -3.2050    0.6110    1.4050 o         1 MOL     -0.473876
     11 C5         -5.8350    0.9680    2.5490 c3        1 MOL     -0.241965
     12 C6         -7.3330    0.6920    2.6410 c         1 MOL      0.690783
     13 O3         -7.9120    0.5810    3.7660 o         1 MOL     -0.702091
     14 O4         -7.9590    0.6290    1.5480 o         1 MOL     -0.702091
     15 H4         -6.0740   -0.4530    4.4750 hn        1 MOL      0.249423
     16 H5         -5.4320   -1.0540    1.7870 h1        1 MOL     -0.072742
     17 H6         -5.6190    1.5100    1.6240 hc        1 MOL      0.005945
     18 H7         -5.5950    1.5890    3.4140 hc        1 MOL      0.005945
     19 N2         -2.6700   -0.9020    2.9620 n         1 MOL     -0.480701
     20 C7         -1.2510   -0.6380    2.9030 c3        1 MOL      0.240963
     21 C8         -0.4200   -1.8470    2.5090 c         1 MOL      0.449252
     22 O5         -0.7470   -2.9090    2.9470 o         1 MOL     -0.496226
     23 C9         -0.7640    0.0060    4.2400 c3        1 MOL     -0.250240
     24 C10        -1.1890    1.4790    4.3180 c3        1 MOL     -0.025864
     25 C11        -0.3950    2.0680    5.4370 c3        1 MOL      0.062657
     26 C12        -0.9810    3.5100    5.6980 c3        1 MOL      0.156786
     27 N3         -0.1090    4.2060    6.6540 n4        1 MOL     -0.372362
     28 H8         -2.9200   -1.8360    3.2680 hn        1 MOL      0.303255
     29 H9         -1.0360    0.0890    2.1230 h1        1 MOL      0.073225
     30 H10         0.3220   -0.0380    4.2360 hc        1 MOL      0.081314
     31 H11        -1.1630   -0.5810    5.0700 hc        1 MOL      0.081314
     32 H12        -2.2630    1.4870    4.5050 hc        1 MOL      0.054349
     33 H13        -1.0330    1.9880    3.3660 hc        1 MOL      0.054349
     34 H14         0.6840    2.1040    5.2810 hc        1 MOL      0.006111
     35 H15        -0.5350    1.5050    6.3690 hc        1 MOL      0.006111
     36 H16        -1.9660    3.5080    6.1630 hx        1 MOL      0.036872
     37 H17        -1.0730    4.0450    4.7560 hx        1 MOL      0.036872
     38 H18         0.8500    4.3010    6.3740 hn        1 MOL      0.314458
     39 H19        -0.3250    5.1920    6.7900 hn        1 MOL      0.314458
     40 H20        -0.1650    3.7960    7.5810 hn        1 MOL      0.314458
     41 N4          0.5910   -1.8290    1.6260 n         1 MOL     -0.320979
     42 C13         1.3160   -0.7020    1.0610 c3        1 MOL     -0.118372
     43 C14         1.9590    0.2450    2.1100 c         1 MOL      0.434394
     44 O6          1.4640    1.4180    2.2340 o         1 MOL     -0.561115
     45 C15         0.7570    0.0150   -0.1810 c3        1 MOL      0.151709
     46 C16         0.4580   -1.0070   -1.2710 c         1 MOL      0.472061
     47 O7          1.2680   -1.9140   -1.4620 o         1 MOL     -0.710766
     48 O8         -0.4420   -0.8340   -2.1420 o         1 MOL     -0.710766
     49 H21         0.7910   -2.7660    1.3080 hn        1 MOL      0.193319
     50 H22         2.1980   -1.1250    0.5760 h1        1 MOL     -0.064672
     51 H23         1.4010    0.8280   -0.4920 hc        1 MOL      0.047865
     52 H24        -0.1660    0.5010    0.1350 hc        1 MOL      0.047865
     53 N5          2.9980   -0.1180    2.7750 n         1 MOL     -0.363880
     54 C17         3.7990   -1.3550    2.4390 c3        1 MOL     -0.059464
     55 C18         4.9420   -1.6230    3.4660 c         1 MOL      0.451720
     56 O9          4.7810   -1.1950    4.6250 o         1 MOL     -0.542112
     57 H25         3.4230    0.5220    3.4260 hn        1 MOL      0.324275
     58 H26         4.2410   -1.2130    1.4510 h1        1 MOL      0.143271
     59 H27         3.1130   -2.1960    2.3400 h1        1 MOL      0.143271
     60 N6          6.0910   -2.2590    3.1130 n         1 MOL     -0.436457
     61 C19         6.2230   -2.8650    1.7930 c3        1 MOL      0.254961
     62 C20         6.7500   -1.8310    0.8600 c         1 MOL      0.487810
     63 O10         7.0020   -0.6750    1.2570 o         1 MOL     -0.469265
     64 C21         7.0460   -4.1780    2.0310 c3        1 MOL     -0.319950
     65 C22         8.3210   -4.0530    2.8790 c         1 MOL      0.693517
     66 O11         8.8930   -2.9270    2.9370 o         1 MOL     -0.668828
     67 O12         8.8440   -5.0070    3.5140 o         1 MOL     -0.668828
     68 H28         6.7620   -2.4080    3.8540 hn        1 MOL      0.341862
     69 H29         5.2660   -3.1580    1.3710 h1        1 MOL     -0.086834
     70 H30         7.3240   -4.7090    1.1270 hc        1 MOL      0.053444
     71 H31         6.3730   -4.8560    2.5510 hc        1 MOL      0.053444
     72 N7          7.0980   -2.2790   -0.3520 n         1 MOL     -0.476418
     73 C23         7.8970   -1.4360   -1.2440 c3        1 MOL      0.109535
     74 C24         7.2390   -0.2230   -1.8370 c         1 MOL      0.383241
     75 O13         7.9250    0.6150   -2.3520 o         1 MOL     -0.539223
     76 H32         7.1270   -3.2840   -0.4010 hn        1 MOL      0.268966
     77 H33         8.3190   -2.0390   -2.0550 h1        1 MOL      0.071519
     78 H34         8.8410   -1.1880   -0.7650 h1        1 MOL      0.071519
     79 N8          5.9450   -0.0940   -1.8530 n         1 MOL     -0.277956
     80 C25         5.1380    1.1150   -2.2760 c3        1 MOL      0.182760
     81 C26         4.8910    1.9310   -0.9820 c         1 MOL      0.504308
     82 O14         4.5090    1.3900    0.0640 o         1 MOL     -0.537032
     83 C27         3.8090    0.7840   -2.9190 c3        1 MOL      0.358576
     84 C28         3.9490    0.1690   -4.3040 c3        1 MOL     -0.355656
     85 O15         3.0900    1.9730   -3.1520 oh        1 MOL     -0.635013
     86 H35         5.3800   -0.7950   -1.3930 hn        1 MOL      0.087033
     87 H36         5.7330    1.7750   -2.9130 h1        1 MOL     -0.003585
     88 H37         3.3260    0.0690   -2.2620 h1        1 MOL      0.074749
     89 H38         2.2530    1.6870   -3.5340 ho        1 MOL      0.448694
     90 H39         4.0880   -0.9050   -4.2300 hc        1 MOL      0.064725
     91 H40         3.0400    0.3090   -4.8870 hc        1 MOL      0.064725
     92 H41         4.8080    0.5510   -4.8520 hc        1 MOL      0.064725
     93 N9          4.9050    3.2370   -1.1610 n         1 MOL     -0.244486
     94 C29         4.4620    4.1130   -0.0610 c3        1 MOL     -0.036671
     95 C30         3.0260    4.6300   -0.1180 c         1 MOL      0.456044
     96 O16         2.6460    5.4060    0.7430 o         1 MOL     -0.543568
     97 C31         5.4090    5.3840   -0.0730 c3        1 MOL      0.010101
     98 C32         5.5300    6.2440   -1.3800 c3        1 MOL     -0.215226
     99 C33         6.8790    4.9670    0.2810 c3        1 MOL     -0.086587
    100 C34         5.8110    5.5390   -2.7540 c3        1 MOL     -0.091522
    101 H42         5.1480    3.6010   -2.0720 hn        1 MOL      0.251555
    102 H43         4.7210    3.6460    0.8790 h1        1 MOL      0.125507
    103 H44         5.0270    6.0070    0.7250 hc        1 MOL      0.043872
    104 H45         6.4040    6.8920   -1.4100 hc        1 MOL      0.084327
    105 H46         4.6840    6.9310   -1.4320 hc        1 MOL      0.084327
    106 H47         7.0040    4.5650    1.2830 hc        1 MOL      0.029369
    107 H48         7.1470    4.1530   -0.3960 hc        1 MOL      0.029369
    108 H49         7.5400    5.8280    0.2770 hc        1 MOL      0.029369
    109 H50         6.6430    4.8380   -2.6560 hc        1 MOL      0.035197
    110 H51         4.9110    5.0150   -3.0890 hc        1 MOL      0.035197
    111 H52         6.1410    6.2770   -3.4880 hc        1 MOL      0.035197
    112 N10         2.1980    4.2080   -1.1070 n         1 MOL     -0.107640
    113 C35         0.8750    4.8270   -1.4340 c3        1 MOL     -0.130969
    114 C36        -0.2460    3.8170   -1.1010 c         1 MOL      0.517462
    115 O17         0.0270    2.6150   -1.3050 o         1 MOL     -0.501861
    116 C37         0.8150    5.1970   -2.9680 c3        1 MOL      0.555958
    117 C38         1.9690    5.9610   -3.5250 c3        1 MOL     -0.276272
    118 O18        -0.3200    5.9630   -3.1550 oh        1 MOL     -0.689822
    119 H53         2.5380    3.5670   -1.8170 hn        1 MOL      0.018028
    120 H54         0.7080    5.7290   -0.8350 h1        1 MOL      0.095041
    121 H55         0.6340    4.3440   -3.6180 h1        1 MOL     -0.057965
    122 H56        -0.7490    5.6500   -3.9570 ho        1 MOL      0.414063
    123 H57         1.6350    6.4120   -4.4550 hc        1 MOL      0.054167
    124 H58         2.3020    6.7900   -2.9080 hc        1 MOL      0.054167
    125 H59         2.7900    5.2740   -3.7330 hc        1 MOL      0.054167
    126 N11        -1.3430    4.2390   -0.4580 n         1 MOL     -0.372758
    127 C39        -2.4150    3.3470   -0.1010 c3        1 MOL     -0.238565
    128 C40        -3.3540    3.0050   -1.2720 c         1 MOL      0.597433
    129 O19        -3.5860    3.8420   -2.1660 o         1 MOL     -0.569566
    130 C41        -3.3090    3.9470    1.0160 c3        1 MOL      0.494811
    131 C42        -3.9610    5.2730    0.5880 c3        1 MOL     -0.397467
    132 O20        -2.5120    4.1710    2.1910 oh        1 MOL     -0.596943
    133 H60        -1.4720    5.2310   -0.3450 hn        1 MOL      0.294396
    134 H61        -2.0630    2.4910    0.4720 h1        1 MOL      0.198010
    135 H62        -4.1170    3.2520    1.2080 h1        1 MOL     -0.005239
    136 H63        -3.1640    4.2240    2.8920 ho        1 MOL      0.326634
    137 H64        -4.6290    5.6580    1.3600 hc        1 MOL      0.095010
    138 H65        -3.1390    5.9440    0.3660 hc        1 MOL      0.095010
    139 H66        -4.6090    5.1010   -0.2760 hc        1 MOL      0.095010
    140 N12        -3.9130    1.7840   -1.1610 n         1 MOL     -0.418709
    141 C43        -4.9130    1.2330   -2.1330 c3        1 MOL      0.076578
    142 C44        -4.9940   -0.3220   -2.1200 c         1 MOL      0.381983
    143 O21        -5.7320   -0.8610   -2.9000 o         1 MOL     -0.535289
    144 C45        -6.2550    1.8890   -1.9070 c3        1 MOL     -0.058871
    145 C46        -7.0130    2.1740   -3.1880 c3        1 MOL      0.117207
    146 C47        -8.5450    2.1950   -3.1520 c3        1 MOL     -0.144194
    147 C48        -9.2100    0.8890   -3.0490 c3        1 MOL      0.200653
    148 N13       -10.6420    0.9910   -2.5650 n4        1 MOL     -0.412680
    149 H67        -3.7040    1.2540   -0.3240 hn        1 MOL      0.178073
    150 H68        -4.5350    1.5390   -3.1110 h1        1 MOL      0.082939
    151 H69        -6.1100    2.8580   -1.4180 hc        1 MOL      0.054135
    152 H70        -6.8020    1.2910   -1.1830 hc        1 MOL      0.054135
    153 H71        -6.6850    1.5040   -3.9780 hc        1 MOL     -0.005659
    154 H72        -6.6880    3.1430   -3.5660 hc        1 MOL     -0.005659
    155 H73        -8.9540    2.6570   -4.0490 hc        1 MOL      0.032594
    156 H74        -8.8500    2.8250   -2.3240 hc        1 MOL      0.032594
    157 H75        -8.6250    0.2430   -2.3960 hx        1 MOL      0.055423
    158 H76        -9.2420    0.3820   -4.0140 hx        1 MOL      0.055423
    159 H77       -10.7880    1.4760   -1.6940 hn        1 MOL      0.329978
    160 H78       -11.3100    1.4660   -3.1500 hn        1 MOL      0.329978
    161 H79       -10.9860    0.0540   -2.3580 hn        1 MOL      0.329978
    162 N14        -4.1270   -1.0050   -1.3580 n         1 MOL     -0.074478
    163 C49        -3.9840   -2.4960   -1.3570 c3        1 MOL     -0.161061
    164 C50        -5.3200   -3.2070   -1.2150 c         1 MOL      0.266218
    165 O22        -6.2290   -2.7270   -0.5460 o         1 MOL     -0.444956
    166 C51        -3.1180   -2.8800   -0.0860 c3        1 MOL      0.079773
    167 C52        -2.7800   -4.3730    0.1060 c3        1 MOL     -0.327338
    168 C53        -2.2570   -4.9710   -1.1390 c         1 MOL      0.851310
    169 O23        -3.0210   -5.5730   -1.9830 o         1 MOL     -0.783206
    170 O24        -1.0410   -4.8890   -1.3370 o         1 MOL     -0.783206
    171 H80        -3.5620   -0.3990   -0.7740 hn        1 MOL      0.171818
    172 H81        -3.4000   -2.7690   -2.2350 h1        1 MOL      0.098483
    173 H82        -3.7680   -2.6710    0.7710 hc        1 MOL      0.092713
    174 H83        -2.1700   -2.3380   -0.0710 hc        1 MOL      0.092713
    175 H84        -3.6750   -4.9300    0.3890 hc        1 MOL      0.086233
    176 H85        -2.0350   -4.4930    0.8900 hc        1 MOL      0.086233
    177 N15        -5.5200   -4.3870   -1.8120 n         1 MOL     -0.129584
    178 C54        -6.7590   -5.1230   -1.8620 c3        1 MOL     -0.083275
    179 H86        -7.5940   -4.4250   -1.9020 h1        1 MOL      0.052177
    180 H87        -6.7720   -5.7550   -2.7500 h1        1 MOL      0.052177
    181 H88        -6.8490   -5.7450   -0.9720 h1        1 MOL      0.052177
    182 H89        -4.6950   -4.7100   -2.2900 hn        1 MOL      0.248874
    183 Ca1         1.2560   -4.3600   -2.1450 Ca        1 MOL      1.748673
    184 O25         2.9650   -3.2210   -4.1640 oh        1 MOL     -0.830198
    185 H90         2.4740   -2.5420   -4.6190 ho        1 MOL      0.411791
    186 H91         3.0860   -3.9190   -4.8160 ho        1 MOL      0.411791
    187 O26         3.2210   -6.0360   -3.3490 oh        1 MOL     -0.830198
    188 H92         3.7670   -5.9760   -4.1440 ho        1 MOL      0.411791
    189 H93         3.7990   -6.4180   -2.6860 ho        1 MOL      0.411791
    190 O27        -0.2420   -2.8980   -3.8250 oh        1 MOL     -0.830198
    191 H94         0.3550   -2.5760   -4.5100 ho        1 MOL      0.411791
    192 H95        -0.3790   -2.1490   -3.2460 ho        1 MOL      0.411791
    193 O28         1.0780   -7.0300   -1.4430 oh        1 MOL     -0.830198
    194 H96         1.6800   -7.6170   -1.9000 ho        1 MOL      0.411791
    195 H97         0.2170   -7.2370   -1.8040 ho        1 MOL      0.411791
    196 O29         0.5240   -5.3480   -4.5680 oh        1 MOL     -0.830198
    197 H98        -0.0960   -4.9170   -5.1510 ho        1 MOL      0.411791
    198 H99         0.5580   -6.2560   -4.8680 ho        1 MOL      0.411791
@<TRIPOS>BOND
     1    1    2 1   
     2    1    4 1   
     3    1    5 1   
     4    1    6 1   
     5    2    3 2   
     6    2    7 1   
     7    7    8 1   
     8    7   15 1   
     9    8    9 1   
    10    8   11 1   
    11    8   16 1   
    12    9   10 2   
    13    9   19 1   
    14   11   12 1   
    15   11   17 1   
    16   11   18 1   
    17   12   13 1   
    18   12   14 1   
    19   19   20 1   
    20   19   28 1   
    21   20   21 1   
    22   20   23 1   
    23   20   29 1   
    24   21   22 2   
    25   21   41 1   
    26   23   24 1   
    27   23   30 1   
    28   23   31 1   
    29   24   25 1   
    30   24   32 1   
    31   24   33 1   
    32   25   26 1   
    33   25   34 1   
    34   25   35 1   
    35   26   27 1   
    36   26   36 1   
    37   26   37 1   
    38   27   38 1   
    39   27   39 1   
    40   27   40 1   
    41   41   42 1   
    42   41   49 1   
    43   42   43 1   
    44   42   45 1   
    45   42   50 1   
    46   43   44 2   
    47   43   53 1   
    48   45   46 1   
    49   45   51 1   
    50   45   52 1   
    51   46   47 1   
    52   46   48 1   
    53   53   54 1   
    54   53   57 1   
    55   54   55 1   
    56   54   58 1   
    57   54   59 1   
    58   55   56 2   
    59   55   60 1   
    60   60   61 1   
    61   60   68 1   
    62   61   62 1   
    63   61   64 1   
    64   61   69 1   
    65   62   63 2   
    66   62   72 1   
    67   64   65 1   
    68   64   70 1   
    69   64   71 1   
    70   65   66 1   
    71   65   67 1   
    72   72   73 1   
    73   72   76 1   
    74   73   74 1   
    75   73   77 1   
    76   73   78 1   
    77   74   75 2   
    78   74   79 1   
    79   79   80 1   
    80   79   86 1   
    81   80   81 1   
    82   80   83 1   
    83   80   87 1   
    84   81   82 2   
    85   81   93 1   
    86   83   84 1   
    87   83   85 1   
    88   83   88 1   
    89   84   90 1   
    90   84   91 1   
    91   84   92 1   
    92   85   89 1   
    93   93   94 1   
    94   93  101 1   
    95   94   95 1   
    96   94   97 1   
    97   94  102 1   
    98   95   96 2   
    99   95  112 1   
   100   97   98 1   
   101   97   99 1   
   102   97  103 1   
   103   98  100 1   
   104   98  104 1   
   105   98  105 1   
   106   99  106 1   
   107   99  107 1   
   108   99  108 1   
   109  100  109 1   
   110  100  110 1   
   111  100  111 1   
   112  112  113 1   
   113  112  119 1   
   114  113  114 1   
   115  113  116 1   
   116  113  120 1   
   117  114  115 2   
   118  114  126 1   
   119  116  117 1   
   120  116  118 1   
   121  116  121 1   
   122  117  123 1   
   123  117  124 1   
   124  117  125 1   
   125  118  122 1   
   126  126  127 1   
   127  126  133 1   
   128  127  128 1   
   129  127  130 1   
   130  127  134 1   
   131  128  129 2   
   132  128  140 1   
   133  130  131 1   
   134  130  132 1   
   135  130  135 1   
   136  131  137 1   
   137  131  138 1   
   138  131  139 1   
   139  132  136 1   
   140  140  141 1   
   141  140  149 1   
   142  141  142 1   
   143  141  144 1   
   144  141  150 1   
   145  142  143 2   
   146  142  162 1   
   147  144  145 1   
   148  144  151 1   
   149  144  152 1   
   150  145  146 1   
   151  145  153 1   
   152  145  154 1   
   153  146  147 1   
   154  146  155 1   
   155  146  156 1   
   156  147  148 1   
   157  147  157 1   
   158  147  158 1   
   159  148  159 1   
   160  148  160 1   
   161  148  161 1   
   162  162  163 1   
   163  162  171 1   
   164  163  164 1   
   165  163  166 1   
   166  163  172 1   
   167  164  165 2   
   168  164  177 1   
   169  166  167 1   
   170  166  173 1   
   171  166  174 1   
   172  167  168 1   
   173  167  175 1   
   174  167  176 1   
   175  168  169 1   
   176  168  170 1   
   177  177  178 1   
   178  177  182 1   
   179  178  179 1   
   180  178  180 1   
   181  178  181 1   
   182  184  185 1   
   183  184  186 1   
   184  187  188 1   
   185  187  189 1   
   186  190  191 1   
   187  190  192 1   
   188  193  194 1   
   189  193  195 1   
   190  196  197 1   
   191  196  198 1   
@<TRIPOS>SUBSTRUCTURE
     1 MOL         1 TEMP              0 ****  ****    0 ROOT
