@<TRIPOS>MOLECULE
MOL
  192   187     1     0     0
SMALL
resp


@<TRIPOS>ATOM
      1 C1          4.1700    4.0470   -3.6000 c3        1 MOL     -0.470034
      2 C2          5.0710    3.2230   -2.6040 c         1 MOL      0.692959
      3 O1          4.6830    2.8460   -1.4890 o         1 MOL     -0.605991
      4 H1          3.2160    3.5390   -3.7320 hc        1 MOL      0.131982
      5 H2          3.9980    5.0440   -3.1940 hc        1 MOL      0.131982
      6 H3          4.6740    4.1290   -4.5630 hc        1 MOL      0.131982
      7 N1          6.2820    2.8360   -3.0510 n         1 MOL     -0.636692
      8 C3          7.1280    1.8040   -2.4160 c3        1 MOL      0.293993
      9 C4          6.3150    0.5860   -2.0040 c         1 MOL      0.333435
     10 O2          6.0440    0.3810   -0.7870 o         1 MOL     -0.466912
     11 C5          8.0060    2.3080   -1.2730 c3        1 MOL     -0.167626
     12 C6          7.4130    3.4990   -0.4200 c         1 MOL      0.752259
     13 O3          6.9040    3.1700    0.6540 o         1 MOL     -0.732051
     14 O4          7.4850    4.6730   -0.8670 o         1 MOL     -0.732051
     15 H4          6.4200    3.1970   -3.9840 hn        1 MOL      0.317973
     16 H5          7.7440    1.4370   -3.2370 h1        1 MOL      0.016556
     17 H6          8.9840    2.5290   -1.7140 hc        1 MOL      0.025605
     18 H7          8.2120    1.4220   -0.6630 hc        1 MOL      0.025605
     19 N2          5.9430   -0.2650   -2.9920 n         1 MOL     -0.467885
     20 C7          5.3330   -1.5850   -2.8890 c3        1 MOL      0.080776
     21 C8          6.0680   -2.6720   -2.0140 c         1 MOL      0.389077
     22 O5          6.3190   -3.7770   -2.4650 o         1 MOL     -0.549122
     23 C9          3.8050   -1.5180   -2.4790 c3        1 MOL      0.411425
     24 C10         2.9460   -2.7380   -2.8800 c3        1 MOL     -0.008384
     25 C11         3.0850   -0.2130   -2.7350 c3        1 MOL     -0.531066
     26 C12         2.9150   -2.9680   -4.3710 c3        1 MOL     -0.052669
     27 H8          6.3650   -0.1190   -3.9070 hn        1 MOL      0.289567
     28 H9          5.3200   -1.9170   -3.9250 h1        1 MOL      0.024077
     29 H10         3.7640   -1.5470   -1.4020 hc        1 MOL     -0.206199
     30 H11         1.9730   -2.6670   -2.4000 hc        1 MOL      0.027861
     31 H12         3.3600   -3.6200   -2.3910 hc        1 MOL      0.027861
     32 H13         2.0630   -0.3100   -2.3890 hc        1 MOL      0.122271
     33 H14         3.6020    0.4670   -2.0590 hc        1 MOL      0.122271
     34 H15         3.1190    0.0820   -3.7810 hc        1 MOL      0.122271
     35 H16         2.1150   -3.6710   -4.6000 hc        1 MOL     -0.009992
     36 H17         2.8540   -2.0400   -4.9370 hc        1 MOL     -0.009992
     37 H18         3.8240   -3.4940   -4.6860 hc        1 MOL     -0.009992
     38 N3          6.3400   -2.2980   -0.7620 n         1 MOL     -0.147704
     39 C13         7.1120   -3.1990    0.1390 c3        1 MOL     -0.090806
     40 C14         6.4390   -4.4890    0.5840 c         1 MOL      0.518716
     41 O6          7.1460   -5.4750    0.8480 o         1 MOL     -0.596812
     42 C15         7.4920   -2.4480    1.3850 c3        1 MOL     -0.263134
     43 C16         8.5200   -1.3290    1.3580 c         1 MOL      0.777742
     44 O7          8.4560   -0.5600    2.3390 o         1 MOL     -0.716006
     45 O8          9.3980   -1.2280    0.4560 o         1 MOL     -0.716006
     46 H19         6.2720   -1.3100   -0.5780 hn        1 MOL      0.259002
     47 H20         7.9410   -3.6650   -0.3920 h1        1 MOL      0.096866
     48 H21         7.9600   -3.2390    1.9710 hc        1 MOL      0.082880
     49 H22         6.6120   -2.1190    1.9420 hc        1 MOL      0.082880
     50 N4          5.1700   -4.5850    0.8660 n         1 MOL     -0.334689
     51 C17         4.1190   -3.6640    0.8040 c3        1 MOL      0.095518
     52 C18         2.8340   -4.1560    1.5950 c         1 MOL      0.554043
     53 O9          2.4400   -5.2840    1.4670 o         1 MOL     -0.582920
     54 H23         4.8500   -5.5100    1.1210 hn        1 MOL      0.238004
     55 H24         3.8250   -3.5730   -0.2410 h1        1 MOL      0.018033
     56 H25         4.4570   -2.7290    1.2380 h1        1 MOL      0.018033
     57 N5          2.0860   -3.3860    2.3890 n         1 MOL     -0.295535
     58 C19         2.2130   -1.9750    2.6950 c3        1 MOL      0.103032
     59 C20         2.3580   -0.9700    1.5310 c         1 MOL      0.706818
     60 O10         3.4380   -0.4370    1.2830 o         1 MOL     -0.776779
     61 C21         3.1060   -1.6570    3.8870 c3        1 MOL     -0.662241
     62 C22         2.8640   -2.4440    5.1790 c         1 MOL      0.833447
     63 O11         1.7370   -2.4890    5.6770 o         1 MOL     -0.736008
     64 O12         3.8140   -3.0280    5.7220 o         1 MOL     -0.736008
     65 H26         1.2240   -3.8140    2.7000 hn        1 MOL      0.249827
     66 H27         1.2280   -1.6840    3.0620 h1        1 MOL      0.006530
     67 H28         2.8480   -0.6420    4.1980 hc        1 MOL      0.163074
     68 H29         4.1680   -1.8170    3.6880 hc        1 MOL      0.163074
     69 N6          1.2930   -0.6310    0.7850 n         1 MOL     -0.438359
     70 C23        -0.0640   -1.1350    0.9640 c3        1 MOL      0.012501
     71 C24        -0.3710   -2.5460    0.4370 c         1 MOL      0.508731
     72 O13         0.4200   -3.2380   -0.1560 o         1 MOL     -0.518694
     73 H30         1.5350    0.0670    0.1040 hn        1 MOL      0.310296
     74 H31        -0.7090   -0.3990    0.4970 h1        1 MOL      0.052323
     75 H32        -0.4210   -1.0790    1.9940 h1        1 MOL      0.052323
     76 N7         -1.6160   -2.8910    0.6220 n         1 MOL     -0.344838
     77 C25        -2.2950   -4.0870    0.2000 c3        1 MOL     -0.029083
     78 C26        -3.1650   -4.0850   -1.0710 c         1 MOL      0.384905
     79 O14        -3.5890   -5.1780   -1.4940 o         1 MOL     -0.533048
     80 C27        -2.9070   -4.7840    1.4400 c3        1 MOL     -0.158874
     81 C28        -4.1170   -4.0180    2.1190 c3        1 MOL     -0.160637
     82 C29        -5.2850   -3.9700    1.1870 c         1 MOL      0.669072
     83 N8         -6.1620   -5.0030    1.1250 n         1 MOL     -0.745497
     84 O15        -5.4990   -2.9550    0.5210 o         1 MOL     -0.590666
     85 H33        -2.1450   -2.1920    1.1290 hn        1 MOL      0.222061
     86 H34        -1.5310   -4.8350   -0.0520 h1        1 MOL      0.150361
     87 H35        -2.1340   -4.8160    2.2000 hc        1 MOL      0.081130
     88 H36        -3.2790   -5.8060    1.2910 hc        1 MOL      0.081130
     89 H37        -3.8670   -2.9950    2.3660 hc        1 MOL      0.066669
     90 H38        -4.3710   -4.4810    3.0770 hc        1 MOL      0.066669
     91 H39        -6.0040   -5.8390    1.6680 hn        1 MOL      0.346193
     92 H40        -6.9000   -5.0350    0.4420 hn        1 MOL      0.346193
     93 N9         -3.3950   -2.9700   -1.6840 n         1 MOL     -0.110796
     94 C30        -3.9140   -2.8600   -3.0840 c3        1 MOL     -0.035536
     95 C31        -5.3150   -2.3600   -3.1940 c         1 MOL      0.474074
     96 O16        -5.8560   -2.3670   -4.3130 o         1 MOL     -0.570734
     97 C32        -2.9570   -2.1910   -4.1520 c3        1 MOL      0.093757
     98 C33        -1.8910   -3.2370   -4.5750 c3        1 MOL     -0.222595
     99 C34        -2.3110   -0.9180   -3.5280 c3        1 MOL     -0.222595
    100 H41        -3.0090   -2.1120   -1.3130 hn        1 MOL      0.151541
    101 H42        -4.0790   -3.8960   -3.3850 h1        1 MOL      0.094628
    102 H43        -3.6070   -1.9750   -4.9910 hc        1 MOL      0.033136
    103 H44        -2.3820   -4.0090   -5.1600 hc        1 MOL      0.060816
    104 H45        -1.0190   -2.8660   -5.1150 hc        1 MOL      0.060816
    105 H46        -1.5610   -3.6950   -3.6400 hc        1 MOL      0.060816
    106 H47        -1.5730   -0.5370   -4.2320 hc        1 MOL      0.060816
    107 H48        -3.1660   -0.3140   -3.2290 hc        1 MOL      0.060816
    108 H49        -1.7560   -1.1280   -2.6140 hc        1 MOL      0.060816
    109 N10        -5.8880   -1.7640   -2.1610 n         1 MOL     -0.242505
    110 C35        -7.2680   -1.1800   -2.1870 c3        1 MOL     -0.066612
    111 C36        -7.2750    0.2570   -1.6960 c         1 MOL      0.532038
    112 O17        -8.2900    0.9280   -1.9780 o         1 MOL     -0.558549
    113 C37        -8.1850   -2.0210   -1.2410 c3        1 MOL     -0.155683
    114 C38        -8.3750   -3.4450   -1.6840 c         1 MOL      0.612732
    115 N11        -8.5390   -3.6130   -2.9820 n         1 MOL     -0.742021
    116 O18        -8.3830   -4.3350   -0.8660 o         1 MOL     -0.546611
    117 H50        -5.3120   -1.6910   -1.3340 hn        1 MOL      0.239662
    118 H51        -7.5930   -1.1990   -3.2310 h1        1 MOL      0.100676
    119 H52        -9.1940   -1.5910   -1.2160 hc        1 MOL      0.072070
    120 H53        -7.7770   -1.8340   -0.2440 hc        1 MOL      0.072070
    121 H54        -8.7410   -2.8560   -3.6140 hn        1 MOL      0.357903
    122 H55        -8.5980   -4.5670   -3.3050 hn        1 MOL      0.357903
    123 N12        -6.3220    0.7740   -0.9090 n         1 MOL     -0.501258
    124 C39        -6.4000    2.0880   -0.2200 c3        1 MOL      0.338274
    125 C40        -5.1080    2.8230    0.0500 c         1 MOL      0.356277
    126 O19        -4.0020    2.3280    0.1680 o         1 MOL     -0.503901
    127 C41        -7.2000    1.9380    1.1230 c3        1 MOL     -0.249807
    128 C42        -6.9330    0.8270    2.0750 ca        1 MOL      0.373970
    129 C43        -5.8390    0.8290    2.9210 ca        1 MOL     -0.367841
    130 C44        -7.9670   -0.1130    2.3310 ca        1 MOL     -0.367841
    131 C45        -5.5800   -0.2190    3.8150 ca        1 MOL     -0.073330
    132 C46        -7.6810   -1.2190    3.1570 ca        1 MOL     -0.073330
    133 C47        -6.5000   -1.2750    3.9790 ca        1 MOL      0.171607
    134 O20        -6.3070   -2.3830    4.7800 oh        1 MOL     -0.538489
    135 H56        -5.5860    0.1140   -0.7280 hn        1 MOL      0.228426
    136 H57        -6.9230    2.7840   -0.8630 h1        1 MOL      0.018400
    137 H58        -8.2610    1.7900    0.8980 hc        1 MOL      0.050037
    138 H59        -7.1790    2.9160    1.6090 hc        1 MOL      0.050037
    139 H60        -5.1520    1.6600    2.9830 ha        1 MOL      0.183142
    140 H61        -8.7860   -0.1850    1.6290 ha        1 MOL      0.183142
    141 H62        -4.7510   -0.2780    4.5030 ha        1 MOL      0.110344
    142 H63        -8.4310   -1.9830    3.1430 ha        1 MOL      0.110344
    143 H64        -5.5830   -2.2420    5.3930 ho        1 MOL      0.420673
    144 N13        -5.1380    4.1280    0.0580 n         1 MOL     -0.520028
    145 C48        -4.0950    5.0030    0.6460 c3        1 MOL      0.234173
    146 C49        -2.6840    5.1040    0.0280 c         1 MOL      0.241431
    147 O21        -1.9810    6.0570    0.3400 o         1 MOL     -0.466111
    148 C50        -4.0230    4.8330    2.1500 c3        1 MOL     -0.057817
    149 C51        -3.4000    6.0570    2.9210 c3        1 MOL     -0.458706
    150 C52        -3.8490    6.1940    4.3710 c         1 MOL      0.739616
    151 O22        -3.6230    7.2690    4.9580 o         1 MOL     -0.741938
    152 O23        -4.3770    5.2840    5.0550 o         1 MOL     -0.741938
    153 H65        -6.0410    4.5730   -0.1060 hn        1 MOL      0.284411
    154 H66        -4.5530    5.9770    0.4820 h1        1 MOL      0.035387
    155 H67        -3.5180    3.9380    2.4990 hc        1 MOL      0.079893
    156 H68        -5.0500    4.7090    2.4950 hc        1 MOL      0.079893
    157 H69        -3.4460    7.0320    2.4480 hc        1 MOL      0.131080
    158 H70        -2.3320    5.8810    3.0290 hc        1 MOL      0.131080
    159 N14        -2.2720    4.1690   -0.7900 n         1 MOL     -0.282237
    160 C53        -1.1220    4.3460   -1.7560 c3        1 MOL     -0.025704
    161 C54        -1.5450    5.0600   -3.0790 c         1 MOL      0.504433
    162 O24        -0.7430    5.5360   -3.8730 o         1 MOL     -0.536102
    163 C55        -0.6290    2.8940   -2.1430 c3        1 MOL      0.034424
    164 C56        -0.1030    1.9790   -1.0060 c3        1 MOL      0.293206
    165 C57         1.1430    2.5230   -0.2740 c         1 MOL      0.448189
    166 O25         1.0710    3.6030    0.3380 o         1 MOL     -0.537667
    167 O26         2.2310    1.9030   -0.4590 o         1 MOL     -0.537667
    168 H71        -2.8540    3.3640   -0.9820 hn        1 MOL      0.323532
    169 H72        -0.2990    4.8970   -1.2970 h1        1 MOL      0.123849
    170 H73         0.2040    3.1660   -2.7960 hc        1 MOL     -0.047024
    171 H74        -1.4860    2.4380   -2.6310 hc        1 MOL     -0.047024
    172 H75         0.2090    1.0860   -1.5430 hc        1 MOL     -0.127507
    173 H76        -0.9380    1.7500   -0.3410 hc        1 MOL     -0.127507
    174 N15        -2.8610    5.1080   -3.3520 n         1 MOL     -0.205278
    175 C58        -3.4670    5.9840   -4.3420 c3        1 MOL     -0.363281
    176 H77        -4.5370    5.7860   -4.3960 h1        1 MOL      0.133231
    177 H78        -3.3050    7.0240   -4.0570 h1        1 MOL      0.133231
    178 H79        -3.0140    5.8000   -5.3170 h1        1 MOL      0.133231
    179 H80        -3.4950    4.6210   -2.7410 hn        1 MOL      0.171288
    180 Ca1         4.5950    1.9480    0.8890 Ca        1 MOL      1.725415
    181 O27         2.4700    2.3180    2.7480 oh        1 MOL     -0.799262
    182 H81         1.7790    1.9120    3.2780 ho        1 MOL      0.384875
    183 H82         1.9890    2.7730    2.0470 ho        1 MOL      0.384875
    184 O28         3.6260    4.4450    0.7740 oh        1 MOL     -0.799262
    185 O29         4.7810    3.0760    3.4830 oh        1 MOL     -0.799262
    186 H83         2.8650    4.5180    0.2070 ho        1 MOL      0.384875
    187 H84         5.2840    2.7430    4.2340 ho        1 MOL      0.384875
    188 H85         4.2630    5.0720    0.4170 ho        1 MOL      0.384875
    189 H86         3.8770    2.8450    3.6730 ho        1 MOL      0.384875
    190 O30         6.1950    0.5320    2.5040 oh        1 MOL     -0.799262
    191 H87         6.0710    0.5430    3.4470 ho        1 MOL      0.384875
    192 H88         6.9980    0.0340    2.3740 ho        1 MOL      0.384875
@<TRIPOS>BOND
     1    1    2 1   
     2    1    4 1   
     3    1    5 1   
     4    1    6 1   
     5    2    3 2   
     6    2    7 1   
     7    7    8 1   
     8    7   15 1   
     9    8    9 1   
    10    8   11 1   
    11    8   16 1   
    12    9   10 2   
    13    9   19 1   
    14   11   12 1   
    15   11   17 1   
    16   11   18 1   
    17   12   13 1   
    18   12   14 1   
    19   19   20 1   
    20   19   27 1   
    21   20   21 1   
    22   20   23 1   
    23   20   28 1   
    24   21   22 2   
    25   21   38 1   
    26   23   24 1   
    27   23   25 1   
    28   23   29 1   
    29   24   26 1   
    30   24   30 1   
    31   24   31 1   
    32   25   32 1   
    33   25   33 1   
    34   25   34 1   
    35   26   35 1   
    36   26   36 1   
    37   26   37 1   
    38   38   39 1   
    39   38   46 1   
    40   39   40 1   
    41   39   42 1   
    42   39   47 1   
    43   40   41 2   
    44   40   50 1   
    45   42   43 1   
    46   42   48 1   
    47   42   49 1   
    48   43   44 1   
    49   43   45 1   
    50   50   51 1   
    51   50   54 1   
    52   51   52 1   
    53   51   55 1   
    54   51   56 1   
    55   52   53 2   
    56   52   57 1   
    57   57   58 1   
    58   57   65 1   
    59   58   59 1   
    60   58   61 1   
    61   58   66 1   
    62   59   60 2   
    63   59   69 1   
    64   61   62 1   
    65   61   67 1   
    66   61   68 1   
    67   62   63 1   
    68   62   64 1   
    69   69   70 1   
    70   69   73 1   
    71   70   71 1   
    72   70   74 1   
    73   70   75 1   
    74   71   72 2   
    75   71   76 1   
    76   76   77 1   
    77   76   85 1   
    78   77   78 1   
    79   77   80 1   
    80   77   86 1   
    81   78   79 2   
    82   78   93 1   
    83   80   81 1   
    84   80   87 1   
    85   80   88 1   
    86   81   82 1   
    87   81   89 1   
    88   81   90 1   
    89   82   83 1   
    90   82   84 2   
    91   83   91 1   
    92   83   92 1   
    93   93   94 1   
    94   93  100 1   
    95   94   95 1   
    96   94   97 1   
    97   94  101 1   
    98   95   96 2   
    99   95  109 1   
   100   97   98 1   
   101   97   99 1   
   102   97  102 1   
   103   98  103 1   
   104   98  104 1   
   105   98  105 1   
   106   99  106 1   
   107   99  107 1   
   108   99  108 1   
   109  109  110 1   
   110  109  117 1   
   111  110  111 1   
   112  110  113 1   
   113  110  118 1   
   114  111  112 2   
   115  111  123 1   
   116  113  114 1   
   117  113  119 1   
   118  113  120 1   
   119  114  115 1   
   120  114  116 2   
   121  115  121 1   
   122  115  122 1   
   123  123  124 1   
   124  123  135 1   
   125  124  125 1   
   126  124  127 1   
   127  124  136 1   
   128  125  126 2   
   129  125  144 1   
   130  127  128 1   
   131  127  137 1   
   132  127  138 1   
   133  128  129 ar  
   134  128  130 ar  
   135  129  131 ar  
   136  129  139 1   
   137  130  132 ar  
   138  130  140 1   
   139  131  133 ar  
   140  131  141 1   
   141  132  133 ar  
   142  132  142 1   
   143  133  134 1   
   144  134  143 1   
   145  144  145 1   
   146  144  153 1   
   147  145  146 1   
   148  145  148 1   
   149  145  154 1   
   150  146  147 2   
   151  146  159 1   
   152  148  149 1   
   153  148  155 1   
   154  148  156 1   
   155  149  150 1   
   156  149  157 1   
   157  149  158 1   
   158  150  151 1   
   159  150  152 1   
   160  159  160 1   
   161  159  168 1   
   162  160  161 1   
   163  160  163 1   
   164  160  169 1   
   165  161  162 2   
   166  161  174 1   
   167  163  164 1   
   168  163  170 1   
   169  163  171 1   
   170  164  165 1   
   171  164  172 1   
   172  164  173 1   
   173  165  166 1   
   174  165  167 1   
   175  174  175 1   
   176  174  179 1   
   177  175  176 1   
   178  175  177 1   
   179  175  178 1   
   180  181  182 1   
   181  181  183 1   
   182  184  186 1   
   183  184  188 1   
   184  185  187 1   
   185  185  189 1   
   186  190  191 1   
   187  190  192 1   
@<TRIPOS>SUBSTRUCTURE
     1 MOL         1 TEMP              0 ****  ****    0 ROOT
