@<TRIPOS>MOLECULE
MOL
  175   173     1     0     0
SMALL
resp


@<TRIPOS>ATOM
      1 C1         -6.1430    7.9840    1.7780 c3        1 MOL     -0.451793
      2 C2         -7.1220    7.3510    0.8270 c         1 MOL      0.584039
      3 O1         -7.2240    7.7310   -0.3650 o         1 MOL     -0.565677
      4 H1         -6.1650    7.4520    2.7290 hc        1 MOL      0.121350
      5 H2         -5.1390    7.9320    1.3560 hc        1 MOL      0.121350
      6 H3         -6.4160    9.0270    1.9400 hc        1 MOL      0.121350
      7 N1         -7.8800    6.2540    1.1310 n         1 MOL     -0.330270
      8 C3         -8.7320    5.4950    0.2030 c3        1 MOL     -0.033644
      9 C4         -7.9840    4.3720   -0.5420 c         1 MOL      0.631571
     10 O2         -8.4880    3.9110   -1.5620 o         1 MOL     -0.539118
     11 C5         -9.8930    4.9300    1.0880 c3        1 MOL     -0.205153
     12 C6        -10.9200    4.1850    0.2800 c         1 MOL      0.740007
     13 O3        -11.7400    4.9380   -0.3380 o         1 MOL     -0.740072
     14 O4        -11.0900    2.9340    0.3780 o         1 MOL     -0.740072
     15 H4         -7.9110    6.0050    2.1020 hn        1 MOL      0.219680
     16 H5         -9.1920    6.1820   -0.4990 h1        1 MOL      0.108646
     17 H6        -10.4110    5.7620    1.5680 hc        1 MOL      0.020480
     18 H7         -9.6070    4.2570    1.8870 hc        1 MOL      0.020480
     19 N2         -6.7590    4.0240   -0.1100 n         1 MOL     -0.615965
     20 C7         -5.7420    3.3060   -0.8920 c3        1 MOL      0.471160
     21 C8         -4.8380    2.4660    0.0480 c         1 MOL      0.374940
     22 O5         -4.3800    3.0710    1.0450 o         1 MOL     -0.536462
     23 C9         -4.8810    4.2450   -1.7930 c3        1 MOL     -0.342862
     24 H8         -6.4350    4.2790    0.8120 hn        1 MOL      0.268418
     25 H9         -6.3030    2.6310   -1.5330 h1        1 MOL     -0.038265
     26 H10        -5.6300    4.7760   -2.3830 hc        1 MOL      0.090209
     27 H11        -4.1770    4.9230   -1.2950 hc        1 MOL      0.090209
     28 H12        -4.2500    3.6140   -2.4070 hc        1 MOL      0.090209
     29 N3         -4.4910    1.2010   -0.2830 n         1 MOL     -0.282148
     30 C10        -5.1450    0.2960   -1.2600 c3        1 MOL     -0.266346
     31 C11        -5.6770   -0.9160   -0.5100 c         1 MOL      0.624777
     32 O6         -5.0560   -1.3160    0.4960 o         1 MOL     -0.565185
     33 C12        -4.2580   -0.0560   -2.4330 c3        1 MOL     -0.069583
     34 C13        -2.8720   -0.5130   -1.9450 c         1 MOL      0.610507
     35 O7         -2.1270    0.1450   -1.1320 o         1 MOL     -0.713389
     36 O8         -2.4530   -1.6180   -2.3130 o         1 MOL     -0.713389
     37 H13        -3.8600    0.8020    0.4060 hn        1 MOL      0.279506
     38 H14        -6.0420    0.7320   -1.6850 h1        1 MOL      0.147076
     39 H15        -4.2320    0.8570   -3.0230 hc        1 MOL      0.044145
     40 H16        -4.6490   -0.8360   -3.0940 hc        1 MOL      0.044145
     41 N4         -6.6170   -1.6590   -1.0530 n         1 MOL     -0.484799
     42 C14        -6.8720   -3.0260   -0.5900 c3        1 MOL      0.088647
     43 C15        -6.7270   -4.1450   -1.6680 c         1 MOL      0.515592
     44 O9         -7.7260   -4.7140   -2.1180 o         1 MOL     -0.561776
     45 H17        -7.2280   -1.2490   -1.7400 hn        1 MOL      0.322522
     46 H18        -7.8890   -3.0990   -0.2000 h1        1 MOL      0.056875
     47 H19        -6.2950   -3.3600    0.2710 h1        1 MOL      0.056875
     48 N5         -5.5900   -4.5730   -2.1430 n         1 MOL     -0.476365
     49 C16        -4.3300   -4.3950   -1.4240 c3        1 MOL      0.075755
     50 C17        -4.2550   -5.1340   -0.1050 c         1 MOL      0.550121
     51 O10        -4.9390   -6.1520    0.0620 o         1 MOL     -0.577115
     52 C18        -3.2600   -4.7520   -2.3550 c3        1 MOL     -0.161571
     53 C19        -1.8150   -4.4170   -1.9280 c         1 MOL      0.473207
     54 N6         -0.8440   -4.5090   -2.7970 n         1 MOL     -0.598316
     55 O11        -1.6000   -3.9440   -0.7890 o         1 MOL     -0.482772
     56 H20        -5.5730   -5.0480   -3.0360 hn        1 MOL      0.312738
     57 H21        -4.3170   -3.3310   -1.1890 h1        1 MOL      0.103196
     58 H22        -3.4520   -4.0990   -3.2030 hc        1 MOL      0.055874
     59 H23        -3.3440   -5.7850   -2.6650 hc        1 MOL      0.055874
     60 H24        -0.9940   -4.8680   -3.7250 hn        1 MOL      0.327325
     61 H25         0.0840   -4.3250   -2.4330 hn        1 MOL      0.327325
     62 N7         -3.7160   -4.4880    0.8760 n         1 MOL     -0.136416
     63 C20        -3.6520   -4.9860    2.2610 c3        1 MOL     -0.313251
     64 C21        -2.2800   -5.3370    2.7680 c         1 MOL      0.618377
     65 O12        -2.1320   -5.8180    3.8890 o         1 MOL     -0.590236
     66 H26        -3.2090   -3.6280    0.7280 hn        1 MOL      0.179226
     67 H27        -4.2300   -5.8810    2.4660 h1        1 MOL      0.124881
     68 H28        -3.9620   -4.1580    2.9050 h1        1 MOL      0.124881
     69 N8         -1.2590   -4.9760    2.0020 n         1 MOL     -0.255912
     70 C22         0.1940   -5.1330    2.2880 c3        1 MOL     -0.013963
     71 C23         0.9660   -3.8700    2.0310 c         1 MOL      0.423567
     72 O13         0.3780   -2.9430    1.4960 o         1 MOL     -0.487263
     73 C24         0.8000   -6.1390    1.3490 c3        1 MOL      0.235288
     74 C25         0.3980   -7.5710    1.7310 c3        1 MOL     -0.493154
     75 O14         0.3790   -6.0240    0.0180 oh        1 MOL     -0.546256
     76 H29        -1.3780   -4.7480    1.0170 hn        1 MOL      0.184018
     77 H30         0.4000   -5.3830    3.3350 h1        1 MOL      0.073224
     78 H31         1.8750   -6.0210    1.2770 h1        1 MOL      0.055615
     79 H32         1.1630   -5.7000   -0.4300 ho        1 MOL      0.376439
     80 H33         0.6830   -7.8160    2.7510 hc        1 MOL      0.125391
     81 H34        -0.6910   -7.6620    1.8030 hc        1 MOL      0.125391
     82 H35         0.8330   -8.2800    1.0200 hc        1 MOL      0.125391
     83 N9          2.2270   -3.7640    2.4440 n         1 MOL     -0.321244
     84 C26         3.0420   -2.5680    2.2750 c3        1 MOL      0.043239
     85 C27         4.1330   -2.9260    1.2510 c         1 MOL      0.310572
     86 O15         4.9860   -3.6670    1.5670 o         1 MOL     -0.527856
     87 C28         3.6600   -1.9220    3.5950 c3        1 MOL      0.267598
     88 C29         4.4170   -0.6600    3.1010 c3        1 MOL      0.182401
     89 C30         2.6530   -1.6990    4.6970 c3        1 MOL     -0.360569
     90 C31         4.9730    0.1310    4.1600 c3        1 MOL     -0.092481
     91 H36         2.7680   -4.5150    2.8490 hn        1 MOL      0.220555
     92 H37         2.4090   -1.7500    1.9190 h1        1 MOL      0.053967
     93 H38         4.4390   -2.5410    4.0290 hc        1 MOL     -0.060470
     94 H39         3.6780   -0.0320    2.5980 hc        1 MOL     -0.061958
     95 H40         5.2410   -0.9350    2.4440 hc        1 MOL     -0.061958
     96 H41         3.2050   -1.3730    5.5710 hc        1 MOL      0.077220
     97 H42         1.8130   -1.0750    4.3950 hc        1 MOL      0.077220
     98 H43         2.1320   -2.6320    4.9240 hc        1 MOL      0.077220
     99 H44         5.5890   -0.4210    4.8730 hc        1 MOL      0.001667
    100 H45         5.5120    1.0270    3.8540 hc        1 MOL      0.001667
    101 H46         4.1390    0.4790    4.7720 hc        1 MOL      0.001667
    102 N10         3.9030   -2.4770    0.0220 n         1 MOL     -0.036943
    103 C32         4.6460   -2.8800   -1.1700 c3        1 MOL     -0.028445
    104 C33         5.8900   -1.9730   -1.4310 c         1 MOL      0.456189
    105 O16         6.8390   -2.2980   -2.1390 o         1 MOL     -0.530309
    106 C34         3.7190   -2.8290   -2.3280 c3        1 MOL     -0.025405
    107 C35         2.4190   -3.6280   -1.9640 c         1 MOL      0.602827
    108 O17         2.3480   -4.8350   -2.2770 o         1 MOL     -0.666670
    109 O18         1.4930   -3.0560   -1.2870 o         1 MOL     -0.666670
    110 H47         3.1920   -1.7740   -0.1020 hn        1 MOL      0.136699
    111 H48         5.0370   -3.8940   -1.2070 h1        1 MOL      0.085533
    112 H49         4.1680   -3.1080   -3.2830 hc        1 MOL      0.004778
    113 H50         3.3660   -1.8220   -2.5260 hc        1 MOL      0.004778
    114 N11         5.8660   -0.7000   -0.9440 n         1 MOL     -0.299795
    115 C36         6.8090    0.4110   -1.3450 c3        1 MOL     -0.007114
    116 C37         6.3920    1.6900   -0.6560 c         1 MOL      0.491196
    117 O19         6.0220    1.7550    0.5290 o         1 MOL     -0.489824
    118 C38         8.2310    0.1190   -0.8440 c3        1 MOL     -0.170999
    119 C39         9.2490    1.3070   -0.8990 ca        1 MOL     -0.017820
    120 C40         9.4450    2.1500    0.1950 ca        1 MOL     -0.058378
    121 C41         9.9420    1.5960   -2.0830 ca        1 MOL     -0.058378
    122 C42        10.4270    3.2190    0.1490 ca        1 MOL     -0.176046
    123 C43        10.8580    2.6190   -2.2320 ca        1 MOL     -0.176046
    124 C44        11.0650    3.4350   -1.0930 ca        1 MOL     -0.075144
    125 H51         5.0490   -0.4450   -0.4040 hn        1 MOL      0.150591
    126 H52         6.8150    0.4770   -2.4320 h1        1 MOL      0.093059
    127 H53         8.6710   -0.7200   -1.3770 hc        1 MOL      0.110873
    128 H54         8.2100   -0.1800    0.2130 hc        1 MOL      0.110873
    129 H55         8.9530    1.9820    1.1320 ha        1 MOL      0.096307
    130 H56         9.7720    0.9370   -2.9220 ha        1 MOL      0.096307
    131 H57        10.6680    3.7800    1.0350 ha        1 MOL      0.132100
    132 H58        11.2810    2.8080   -3.2000 ha        1 MOL      0.132100
    133 H59        11.7760    4.2430   -1.1940 ha        1 MOL      0.087189
    134 N12         6.4780    2.8330   -1.3430 n         1 MOL     -0.243492
    135 C45         6.4900    4.1270   -0.7270 c3        1 MOL     -0.092994
    136 C46         5.1820    4.7260   -0.2640 c         1 MOL      0.528529
    137 O20         5.1930    5.8580    0.1600 o         1 MOL     -0.546756
    138 C47         7.2620    5.0990   -1.6560 c3        1 MOL      0.103895
    139 C48         6.8640    4.5520   -3.0340 c3        1 MOL     -0.136323
    140 C49         6.8240    3.0110   -2.7450 c3        1 MOL      0.120175
    141 H60         7.1170    4.0190    0.1570 h1        1 MOL      0.080547
    142 H61         7.0360    6.1420   -1.4560 hc        1 MOL      0.008453
    143 H62         8.3290    5.0480   -1.4390 hc        1 MOL      0.008453
    144 H63         5.9070    4.9260   -3.3780 hc        1 MOL      0.045377
    145 H64         7.6830    4.6990   -3.7380 hc        1 MOL      0.045377
    146 H65         6.0940    2.5750   -3.4370 h1        1 MOL      0.008686
    147 H66         7.7860    2.5870   -3.0330 h1        1 MOL      0.008686
    148 N13         4.1490    3.9240   -0.1320 n         1 MOL     -0.297266
    149 C50         2.8430    4.3790    0.3430 c3        1 MOL     -0.158214
    150 C51         2.9970    5.0260    1.7580 c         1 MOL      0.509699
    151 O21         2.2280    5.9210    2.1940 o         1 MOL     -0.547299
    152 C52         1.7770    3.2670    0.3920 c3        1 MOL      0.035701
    153 C53         1.9620    2.0050    1.2350 c3        1 MOL     -0.016243
    154 C54         1.2610    0.6890    0.7200 c         1 MOL      0.584124
    155 O22         1.6890   -0.0260   -0.2160 o         1 MOL     -0.696939
    156 O23         0.1500    0.3800    1.2220 o         1 MOL     -0.696939
    157 H67         4.2830    2.9670   -0.4390 hn        1 MOL      0.224525
    158 H68         2.4240    5.1660   -0.3010 h1        1 MOL      0.113078
    159 H69         1.5260    2.8230   -0.5740 hc        1 MOL      0.032692
    160 H70         0.8960    3.8340    0.7000 hc        1 MOL      0.032692
    161 H71         1.7120    2.3300    2.2470 hc        1 MOL      0.001089
    162 H72         3.0240    1.7600    1.3320 hc        1 MOL      0.001089
    163 N14         3.9250    4.5210    2.5740 n         1 MOL     -0.182610
    164 C55         4.2420    5.0710    3.9350 c3        1 MOL     -0.088044
    165 H73         3.9740    4.3370    4.6940 h1        1 MOL      0.061507
    166 H74         5.3080    5.2890    4.0000 h1        1 MOL      0.061507
    167 H75         3.6730    5.9860    4.0990 h1        1 MOL      0.061507
    168 H76         4.5030    3.7560    2.2690 hn        1 MOL      0.198488
    169 Ca1        -0.4380   -1.5020   -0.5630 Ca        1 MOL      1.751860
    170 O24         0.6200   -0.8440   -3.0110 oh        1 MOL     -0.846879
    171 H77         0.4010   -1.2470   -3.8580 ho        1 MOL      0.410991
    172 H78         0.9640    0.0220   -3.2530 ho        1 MOL      0.410991
    173 O25        -2.3590   -1.5290    1.3310 oh        1 MOL     -0.846879
    174 H79        -2.1750   -0.9990    2.1100 ho        1 MOL      0.410991
    175 H80        -3.2610   -1.2950    1.0950 ho        1 MOL      0.410991
@<TRIPOS>BOND
     1    1    2 1   
     2    1    4 1   
     3    1    5 1   
     4    1    6 1   
     5    2    3 2   
     6    2    7 1   
     7    7    8 1   
     8    7   15 1   
     9    8    9 1   
    10    8   11 1   
    11    8   16 1   
    12    9   10 2   
    13    9   19 1   
    14   11   12 1   
    15   11   17 1   
    16   11   18 1   
    17   12   13 1   
    18   12   14 1   
    19   19   20 1   
    20   19   24 1   
    21   20   21 1   
    22   20   23 1   
    23   20   25 1   
    24   21   22 2   
    25   21   29 1   
    26   23   26 1   
    27   23   27 1   
    28   23   28 1   
    29   29   30 1   
    30   29   37 1   
    31   30   31 1   
    32   30   33 1   
    33   30   38 1   
    34   31   32 2   
    35   31   41 1   
    36   33   34 1   
    37   33   39 1   
    38   33   40 1   
    39   34   35 1   
    40   34   36 1   
    41   41   42 1   
    42   41   45 1   
    43   42   43 1   
    44   42   46 1   
    45   42   47 1   
    46   43   44 2   
    47   43   48 1   
    48   48   49 1   
    49   48   56 1   
    50   49   50 1   
    51   49   52 1   
    52   49   57 1   
    53   50   51 2   
    54   50   62 1   
    55   52   53 1   
    56   52   58 1   
    57   52   59 1   
    58   53   54 1   
    59   53   55 2   
    60   54   60 1   
    61   54   61 1   
    62   62   63 1   
    63   62   66 1   
    64   63   64 1   
    65   63   67 1   
    66   63   68 1   
    67   64   65 2   
    68   64   69 1   
    69   69   70 1   
    70   69   76 1   
    71   70   71 1   
    72   70   73 1   
    73   70   77 1   
    74   71   72 2   
    75   71   83 1   
    76   73   74 1   
    77   73   75 1   
    78   73   78 1   
    79   74   80 1   
    80   74   81 1   
    81   74   82 1   
    82   75   79 1   
    83   83   84 1   
    84   83   91 1   
    85   84   85 1   
    86   84   87 1   
    87   84   92 1   
    88   85   86 2   
    89   85  102 1   
    90   87   88 1   
    91   87   89 1   
    92   87   93 1   
    93   88   90 1   
    94   88   94 1   
    95   88   95 1   
    96   89   96 1   
    97   89   97 1   
    98   89   98 1   
    99   90   99 1   
   100   90  100 1   
   101   90  101 1   
   102  102  103 1   
   103  102  110 1   
   104  103  104 1   
   105  103  106 1   
   106  103  111 1   
   107  104  105 2   
   108  104  114 1   
   109  106  107 1   
   110  106  112 1   
   111  106  113 1   
   112  107  108 1   
   113  107  109 1   
   114  114  115 1   
   115  114  125 1   
   116  115  116 1   
   117  115  118 1   
   118  115  126 1   
   119  116  117 2   
   120  116  134 1   
   121  118  119 1   
   122  118  127 1   
   123  118  128 1   
   124  119  120 ar  
   125  119  121 ar  
   126  120  122 ar  
   127  120  129 1   
   128  121  123 ar  
   129  121  130 1   
   130  122  124 ar  
   131  122  131 1   
   132  123  124 ar  
   133  123  132 1   
   134  124  133 1   
   135  134  135 1   
   136  134  140 1   
   137  135  136 1   
   138  135  138 1   
   139  135  141 1   
   140  136  137 2   
   141  136  148 1   
   142  138  139 1   
   143  138  142 1   
   144  138  143 1   
   145  139  140 1   
   146  139  144 1   
   147  139  145 1   
   148  140  146 1   
   149  140  147 1   
   150  148  149 1   
   151  148  157 1   
   152  149  150 1   
   153  149  152 1   
   154  149  158 1   
   155  150  151 2   
   156  150  163 1   
   157  152  153 1   
   158  152  159 1   
   159  152  160 1   
   160  153  154 1   
   161  153  161 1   
   162  153  162 1   
   163  154  155 1   
   164  154  156 1   
   165  163  164 1   
   166  163  168 1   
   167  164  165 1   
   168  164  166 1   
   169  164  167 1   
   170  170  171 1   
   171  170  172 1   
   172  173  174 1   
   173  173  175 1   
@<TRIPOS>SUBSTRUCTURE
     1 MOL         1 TEMP              0 ****  ****    0 ROOT
