@<TRIPOS>MOLECULE
MOL
  198   191     1     0     0
SMALL
resp


@<TRIPOS>ATOM
      1 C1          6.6690   -2.2570    0.0480 c3        1 MOL     -0.728366
      2 C2          5.2000   -1.8430   -0.2940 c         1 MOL      0.745530
      3 O1          4.9390   -0.7870   -0.8280 o         1 MOL     -0.553401
      4 H1          7.1730   -2.5910   -0.8600 hc        1 MOL      0.201768
      5 H2          7.2010   -1.4010    0.4630 hc        1 MOL      0.201768
      6 H3          6.6590   -3.0670    0.7770 hc        1 MOL      0.201768
      7 N1          4.1620   -2.6030    0.0690 n         1 MOL     -0.619343
      8 C3          4.1270   -3.9700    0.5770 c3        1 MOL      0.106846
      9 C4          3.5640   -4.9630   -0.3420 c         1 MOL      0.391554
     10 O2          3.1130   -6.0110    0.0770 o         1 MOL     -0.520273
     11 C5          3.3080   -3.8850    1.9260 c3        1 MOL      0.190737
     12 C6          3.8000   -2.8850    2.8860 c         1 MOL      0.616966
     13 O3          3.2510   -1.7710    2.8580 o         1 MOL     -0.720892
     14 O4          4.6380   -3.2050    3.7310 o         1 MOL     -0.720892
     15 H4          3.2810   -2.2010   -0.2340 hn        1 MOL      0.330610
     16 H5          5.0870   -4.3270    0.9260 h1        1 MOL      0.062481
     17 H6          3.4600   -4.8360    2.4390 hc        1 MOL     -0.043313
     18 H7          2.2570   -3.7220    1.7100 hc        1 MOL     -0.043313
     19 N2          3.5370   -4.5960   -1.6450 n         1 MOL     -0.225556
     20 C7          3.1980   -5.4450   -2.7300 c3        1 MOL     -0.116412
     21 C8          1.6540   -5.6230   -2.9060 c         1 MOL      0.377957
     22 O5          1.1500   -6.3840   -3.7270 o         1 MOL     -0.547543
     23 C9          3.9020   -5.0770   -4.1060 c3        1 MOL      0.122213
     24 C10         3.2780   -3.9240   -4.8980 c3        1 MOL     -0.057230
     25 C11         5.4740   -4.8710   -3.9170 c3        1 MOL     -0.280269
     26 C12         3.1040   -2.5510   -4.2820 c3        1 MOL      0.002810
     27 H8          3.8480   -3.6700   -1.8910 hn        1 MOL      0.144080
     28 H9          3.6510   -6.3920   -2.4180 h1        1 MOL      0.132686
     29 H10         3.8620   -6.0530   -4.6070 hc        1 MOL      0.014519
     30 H11         2.3540   -4.2570   -5.3630 hc        1 MOL      0.018439
     31 H12         3.9820   -3.7640   -5.7150 hc        1 MOL      0.018439
     32 H13         5.8700   -5.6460   -3.2610 hc        1 MOL      0.063500
     33 H14         6.0360   -4.7900   -4.8410 hc        1 MOL      0.063500
     34 H15         5.6270   -3.9040   -3.4500 hc        1 MOL      0.063500
     35 H16         2.2200   -2.4900   -3.6400 hc        1 MOL      0.012743
     36 H17         4.0400   -2.4710   -3.7450 hc        1 MOL      0.012743
     37 H18         3.0510   -1.7320   -5.0040 hc        1 MOL      0.012743
     38 N3          0.8080   -4.8870   -2.2050 n         1 MOL     -0.288652
     39 C13        -0.6810   -4.8990   -2.4780 c3        1 MOL      0.339783
     40 C14        -1.4170   -4.6370   -1.1380 c         1 MOL      0.229747
     41 O6         -0.7390   -4.6730   -0.0390 o         1 MOL     -0.509644
     42 C15        -0.9330   -3.7970   -3.5200 c3        1 MOL     -0.336771
     43 C16        -2.2900   -3.7580   -4.0530 c         1 MOL      0.742303
     44 O7         -3.1910   -4.6140   -3.8300 o         1 MOL     -0.717823
     45 O8         -2.5340   -2.8630   -4.9540 o         1 MOL     -0.717823
     46 H19         1.1170   -4.3120   -1.4400 hn        1 MOL      0.261120
     47 H20        -1.0860   -5.8030   -2.9360 h1        1 MOL      0.026376
     48 H21        -0.1480   -3.8110   -4.2840 hc        1 MOL      0.091057
     49 H22        -0.9010   -2.8500   -2.9780 hc        1 MOL      0.091057
     50 N4         -2.7410   -4.6610   -1.0800 n         1 MOL     -0.340957
     51 C17        -3.6130   -4.7330    0.1010 c3        1 MOL      0.037373
     52 C18        -4.2880   -3.3300    0.3360 c         1 MOL      0.532844
     53 O9         -4.0220   -2.3150   -0.2630 o         1 MOL     -0.486233
     54 H23        -3.1780   -4.5760   -1.9890 hn        1 MOL      0.251298
     55 H24        -2.9490   -5.0090    0.9200 h1        1 MOL      0.064064
     56 H25        -4.3330   -5.5390   -0.0150 h1        1 MOL      0.064064
     57 N5         -5.2040   -3.4440    1.3070 n         1 MOL     -0.652061
     58 C19        -5.6970   -2.1740    1.8530 c3        1 MOL      0.533032
     59 C20        -7.1910   -2.3570    2.3360 c         1 MOL      0.378020
     60 O10        -7.6670   -3.4570    2.6900 o         1 MOL     -0.520713
     61 C21        -4.7860   -1.5460    2.8790 c3        1 MOL     -0.286342
     62 C22        -4.4290   -2.3000    4.1820 c         1 MOL      0.664416
     63 O11        -3.2760   -2.6390    4.4070 o         1 MOL     -0.689952
     64 O12        -5.4090   -2.5420    4.9660 o         1 MOL     -0.689952
     65 H26        -5.6230   -4.3510    1.4730 hn        1 MOL      0.307558
     66 H27        -5.6940   -1.3980    1.0880 h1        1 MOL      0.054554
     67 H28        -5.0780   -0.5260    3.1030 hc        1 MOL      0.036158
     68 H29        -3.8130   -1.4100    2.4150 hc        1 MOL      0.036158
     69 N6         -8.0340   -1.3410    2.2590 n         1 MOL     -0.484411
     70 C23        -7.8080   -0.0420    1.5900 c3        1 MOL     -0.168374
     71 C24        -7.6980   -0.2530    0.0580 c         1 MOL      0.666766
     72 O13        -7.6550   -1.3410   -0.5180 o         1 MOL     -0.543787
     73 H30        -8.8980   -1.3800    2.7730 hn        1 MOL      0.319974
     74 H31        -6.8470    0.3460    1.9280 h1        1 MOL      0.131603
     75 H32        -8.6440    0.6080    1.8500 h1        1 MOL      0.131603
     76 N7         -7.5000    0.8130   -0.7280 n         1 MOL     -0.590668
     77 C25        -7.3710    2.2520   -0.4420 c3        1 MOL      0.051227
     78 C26        -6.1330    2.3930    0.4660 c         1 MOL      0.481050
     79 O14        -6.1820    2.7660    1.6650 o         1 MOL     -0.543180
     80 C27        -8.6830    2.8990    0.1600 c3        1 MOL      0.026757
     81 C28        -9.8800    2.6760   -0.7470 c3        1 MOL     -0.149872
     82 C29       -11.1830    3.2410   -0.2020 c         1 MOL      0.758922
     83 N8        -12.2840    2.8820   -0.7670 n         1 MOL     -0.833158
     84 O15       -11.2630    4.0560    0.6840 o         1 MOL     -0.585223
     85 H33        -7.1820    0.5480   -1.6420 hn        1 MOL      0.327373
     86 H34        -7.1350    2.8430   -1.3300 h1        1 MOL      0.078760
     87 H35        -8.5890    3.9720    0.2710 hc        1 MOL      0.010135
     88 H36        -8.8770    2.4930    1.1600 hc        1 MOL      0.010135
     89 H37        -9.9620    1.6010   -0.9310 hc        1 MOL      0.033267
     90 H38        -9.6960    3.2160   -1.6690 hc        1 MOL      0.033267
     91 H39       -12.4300    2.3780   -1.6380 hn        1 MOL      0.348449
     92 H40       -13.1570    3.2740   -0.4470 hn        1 MOL      0.348449
     93 N9         -5.0060    1.8900   -0.0450 n         1 MOL     -0.397713
     94 C30        -3.6200    1.9020    0.4910 c3        1 MOL     -0.045023
     95 C31        -2.7310    0.7960   -0.1260 c         1 MOL      0.429077
     96 O16        -2.7690    0.4590   -1.3160 o         1 MOL     -0.408868
     97 C32        -2.8040    3.2170    0.3130 c3        1 MOL      0.088032
     98 C33        -3.2760    4.4620    1.2280 c3        1 MOL     -0.212926
     99 C34        -2.7000    3.7350   -1.1060 c3        1 MOL     -0.212926
    100 H41        -5.0400    1.3550   -0.9050 hn        1 MOL      0.254106
    101 H42        -3.6930    1.7020    1.5590 h1        1 MOL      0.120888
    102 H43        -1.8130    2.9050    0.6500 hc        1 MOL      0.072176
    103 H44        -2.6270    5.3240    1.0990 hc        1 MOL      0.065767
    104 H45        -4.3240    4.6190    0.9960 hc        1 MOL      0.065767
    105 H46        -3.1740    4.1140    2.2620 hc        1 MOL      0.065767
    106 H47        -1.9600    4.5340   -1.0650 hc        1 MOL      0.065767
    107 H48        -2.3650    3.0890   -1.9130 hc        1 MOL      0.065767
    108 H49        -3.6260    4.2070   -1.4300 hc        1 MOL      0.065767
    109 N10        -1.8940    0.1180    0.6920 n         1 MOL     -0.637507
    110 C35        -0.9370   -0.9620    0.3880 c3        1 MOL     -0.085336
    111 C36         0.3510   -0.5370   -0.4570 c         1 MOL      0.417717
    112 O17         1.4690   -1.1780   -0.4750 o         1 MOL     -0.538694
    113 C37        -0.6540   -1.7910    1.6140 c3        1 MOL     -0.082691
    114 C38        -0.2730   -0.9990    2.8640 c         1 MOL      0.510207
    115 N11        -0.7820   -1.3900    4.0260 n         1 MOL     -0.669148
    116 O18         0.6030   -0.1230    2.7870 o         1 MOL     -0.587021
    117 H50        -1.8620    0.4180    1.6580 hn        1 MOL      0.337868
    118 H51        -1.4300   -1.6300   -0.3160 h1        1 MOL      0.225931
    119 H52         0.1960   -2.4290    1.4010 hc        1 MOL      0.097853
    120 H53        -1.5160   -2.3870    1.9260 hc        1 MOL      0.097853
    121 H54        -1.5680   -2.0220    3.9330 hn        1 MOL      0.340166
    122 H55        -0.6650   -0.7890    4.8240 hn        1 MOL      0.340166
    123 N12         0.2950    0.6110   -1.1720 n         1 MOL     -0.188345
    124 C39         1.4140    1.2660   -1.8890 c3        1 MOL      0.081079
    125 C40         1.7760    2.6360   -1.1760 c         1 MOL      0.389076
    126 O19         0.9960    3.1590   -0.3410 o         1 MOL     -0.454619
    127 C41         1.0600    1.2220   -3.3780 c3        1 MOL      0.120336
    128 C42        -0.0960    2.0730   -3.7770 ca        1 MOL      0.044557
    129 C43         0.1160    3.4580   -3.9440 ca        1 MOL     -0.144746
    130 C44        -1.2750    1.4520   -4.1690 ca        1 MOL     -0.144746
    131 C45        -0.8710    4.2580   -4.4570 ca        1 MOL     -0.221432
    132 C46        -2.1870    2.2310   -4.8310 ca        1 MOL     -0.221432
    133 C47        -2.0110    3.6340   -5.0290 ca        1 MOL      0.232879
    134 O20        -3.0170    4.4470   -5.4760 oh        1 MOL     -0.509380
    135 H56        -0.5950    1.0670   -1.3280 hn        1 MOL      0.192686
    136 H57         2.3030    0.6610   -1.7390 h1        1 MOL     -0.035057
    137 H58         0.9590    0.2030   -3.7360 hc        1 MOL     -0.036804
    138 H59         1.9190    1.6250   -3.8990 hc        1 MOL     -0.036804
    139 H60         1.0950    3.8850   -3.7480 ha        1 MOL      0.126017
    140 H61        -1.5580    0.4440   -3.9250 ha        1 MOL      0.126017
    141 H62        -0.6680    5.3160   -4.5210 ha        1 MOL      0.140975
    142 H63        -3.1640    1.8500   -5.1180 ha        1 MOL      0.140975
    143 H64        -3.8000    4.0320   -5.8490 ho        1 MOL      0.374450
    144 N13         2.9210    3.2140   -1.5470 n         1 MOL     -0.256848
    145 C48         3.2950    4.4820   -1.1250 c3        1 MOL     -0.583771
    146 C49         4.8260    4.4860   -0.9730 c         1 MOL      0.965163
    147 O21         5.5430    5.1970   -1.6400 o         1 MOL     -0.534697
    148 C50         2.7120    5.5280   -2.0820 c3        1 MOL     -0.310068
    149 C51         3.0600    6.9810   -1.6970 c3        1 MOL     -0.196385
    150 C52         2.7790    7.2760   -0.2000 c         1 MOL      0.671244
    151 O22         3.6680    7.5830    0.5490 o         1 MOL     -0.710501
    152 O23         1.5820    7.0400    0.2640 o         1 MOL     -0.710501
    153 H65         3.5670    2.7320   -2.1450 hn        1 MOL      0.350678
    154 H66         2.9130    4.7150   -0.1340 h1        1 MOL      0.295738
    155 H67         1.6230    5.5210   -2.1790 hc        1 MOL      0.145221
    156 H68         3.0460    5.4220   -3.1170 hc        1 MOL      0.145221
    157 H69         2.5190    7.6250   -2.3960 hc        1 MOL      0.032726
    158 H70         4.1100    7.2220   -1.8880 hc        1 MOL      0.032726
    159 N14         5.3430    3.5260   -0.2030 n         1 MOL     -0.630288
    160 C53         6.7340    3.0060   -0.1710 c3        1 MOL     -0.065634
    161 C54         7.1720    2.4270   -1.5650 c         1 MOL      0.427120
    162 O24         7.9660    3.1130   -2.1850 o         1 MOL     -0.504984
    163 C55         6.9140    1.9290    0.8750 c3        1 MOL     -0.014372
    164 C56         6.5210    2.4680    2.2990 c3        1 MOL      0.009904
    165 C57         6.5830    1.3120    3.2680 c         1 MOL      0.552733
    166 O25         7.5510    1.0750    3.9980 o         1 MOL     -0.671233
    167 O26         5.4490    0.7480    3.4540 o         1 MOL     -0.671233
    168 H71         4.6830    2.9570    0.3140 hn        1 MOL      0.301003
    169 H72         7.3540    3.8800    0.0350 h1        1 MOL      0.099187
    170 H73         7.9360    1.5330    0.9000 hc        1 MOL      0.040346
    171 H74         6.1030    1.2720    0.5510 hc        1 MOL      0.040346
    172 H75         5.5100    2.8700    2.2930 hc        1 MOL     -0.001003
    173 H76         7.0910    3.3210    2.6660 hc        1 MOL     -0.001003
    174 N15         6.4970    1.3490   -2.0960 n         1 MOL     -0.292605
    175 C58         6.4640    1.1420   -3.5530 c3        1 MOL     -0.144801
    176 H77         6.7580    0.1170   -3.7800 h1        1 MOL      0.074007
    177 H78         5.4550    1.3210   -3.9230 h1        1 MOL      0.074007
    178 H79         7.1570    1.8320   -4.0340 h1        1 MOL      0.074007
    179 H80         5.8640    0.8200   -1.5220 hn        1 MOL      0.213746
    180 Ca1         2.9760    0.5670    3.7940 Ca        1 MOL      1.891326
    181 O27         2.3440   -1.3280    5.5860 oh        1 MOL     -0.897045
    182 H81         2.8190   -2.1590    5.4900 ho        1 MOL      0.427088
    183 H82         1.8060   -1.4460    6.3660 ho        1 MOL      0.427088
    184 O28         5.3130   -1.1810    5.1180 oh        1 MOL     -0.897045
    185 H83         4.9080   -1.8040    4.5230 ho        1 MOL      0.427088
    186 H84         5.6670   -0.4910    4.5550 ho        1 MOL      0.427088
    187 O29         3.0810    3.0990    3.2100 oh        1 MOL     -0.897045
    188 H85         2.5050    3.6480    2.6590 ho        1 MOL      0.427088
    189 H86         3.8050    3.6870    3.4450 ho        1 MOL      0.427088
    190 O30         3.1580    0.4400    1.1880 oh        1 MOL     -0.897045
    191 H87         3.8240    0.0560    0.6120 ho        1 MOL      0.427088
    192 H88         2.3250    0.1420    0.8250 ho        1 MOL      0.427088
    193 O31         1.1210    1.9350    5.3760 oh        1 MOL     -0.897045
    194 H89         0.3850    1.4470    5.7620 ho        1 MOL      0.427088
    195 H90         1.1640    2.7430    5.8840 ho        1 MOL      0.427088
    196 O32         3.7960    1.1630    6.3450 oh        1 MOL     -0.897045
    197 H91         3.9670    2.0580    6.6180 ho        1 MOL      0.427088
    198 H92         3.9220    0.6380    7.1370 ho        1 MOL      0.427088
@<TRIPOS>BOND
     1    1    2 1   
     2    1    4 1   
     3    1    5 1   
     4    1    6 1   
     5    2    3 2   
     6    2    7 1   
     7    7    8 1   
     8    7   15 1   
     9    8    9 1   
    10    8   11 1   
    11    8   16 1   
    12    9   10 2   
    13    9   19 1   
    14   11   12 1   
    15   11   17 1   
    16   11   18 1   
    17   12   13 1   
    18   12   14 1   
    19   19   20 1   
    20   19   27 1   
    21   20   21 1   
    22   20   23 1   
    23   20   28 1   
    24   21   22 2   
    25   21   38 1   
    26   23   24 1   
    27   23   25 1   
    28   23   29 1   
    29   24   26 1   
    30   24   30 1   
    31   24   31 1   
    32   25   32 1   
    33   25   33 1   
    34   25   34 1   
    35   26   35 1   
    36   26   36 1   
    37   26   37 1   
    38   38   39 1   
    39   38   46 1   
    40   39   40 1   
    41   39   42 1   
    42   39   47 1   
    43   40   41 2   
    44   40   50 1   
    45   42   43 1   
    46   42   48 1   
    47   42   49 1   
    48   43   44 1   
    49   43   45 1   
    50   50   51 1   
    51   50   54 1   
    52   51   52 1   
    53   51   55 1   
    54   51   56 1   
    55   52   53 2   
    56   52   57 1   
    57   57   58 1   
    58   57   65 1   
    59   58   59 1   
    60   58   61 1   
    61   58   66 1   
    62   59   60 2   
    63   59   69 1   
    64   61   62 1   
    65   61   67 1   
    66   61   68 1   
    67   62   63 1   
    68   62   64 1   
    69   69   70 1   
    70   69   73 1   
    71   70   71 1   
    72   70   74 1   
    73   70   75 1   
    74   71   72 2   
    75   71   76 1   
    76   76   77 1   
    77   76   85 1   
    78   77   78 1   
    79   77   80 1   
    80   77   86 1   
    81   78   79 2   
    82   78   93 1   
    83   80   81 1   
    84   80   87 1   
    85   80   88 1   
    86   81   82 1   
    87   81   89 1   
    88   81   90 1   
    89   82   83 1   
    90   82   84 2   
    91   83   91 1   
    92   83   92 1   
    93   93   94 1   
    94   93  100 1   
    95   94   95 1   
    96   94   97 1   
    97   94  101 1   
    98   95   96 2   
    99   95  109 1   
   100   97   98 1   
   101   97   99 1   
   102   97  102 1   
   103   98  103 1   
   104   98  104 1   
   105   98  105 1   
   106   99  106 1   
   107   99  107 1   
   108   99  108 1   
   109  109  110 1   
   110  109  117 1   
   111  110  111 1   
   112  110  113 1   
   113  110  118 1   
   114  111  112 2   
   115  111  123 1   
   116  113  114 1   
   117  113  119 1   
   118  113  120 1   
   119  114  115 1   
   120  114  116 2   
   121  115  121 1   
   122  115  122 1   
   123  123  124 1   
   124  123  135 1   
   125  124  125 1   
   126  124  127 1   
   127  124  136 1   
   128  125  126 2   
   129  125  144 1   
   130  127  128 1   
   131  127  137 1   
   132  127  138 1   
   133  128  129 ar  
   134  128  130 ar  
   135  129  131 ar  
   136  129  139 1   
   137  130  132 ar  
   138  130  140 1   
   139  131  133 ar  
   140  131  141 1   
   141  132  133 ar  
   142  132  142 1   
   143  133  134 1   
   144  134  143 1   
   145  144  145 1   
   146  144  153 1   
   147  145  146 1   
   148  145  148 1   
   149  145  154 1   
   150  146  147 2   
   151  146  159 1   
   152  148  149 1   
   153  148  155 1   
   154  148  156 1   
   155  149  150 1   
   156  149  157 1   
   157  149  158 1   
   158  150  151 1   
   159  150  152 1   
   160  159  160 1   
   161  159  168 1   
   162  160  161 1   
   163  160  163 1   
   164  160  169 1   
   165  161  162 2   
   166  161  174 1   
   167  163  164 1   
   168  163  170 1   
   169  163  171 1   
   170  164  165 1   
   171  164  172 1   
   172  164  173 1   
   173  165  166 1   
   174  165  167 1   
   175  174  175 1   
   176  174  179 1   
   177  175  176 1   
   178  175  177 1   
   179  175  178 1   
   180  181  182 1   
   181  181  183 1   
   182  184  185 1   
   183  184  186 1   
   184  187  188 1   
   185  187  189 1   
   186  190  191 1   
   187  190  192 1   
   188  193  194 1   
   189  193  195 1   
   190  196  197 1   
   191  196  198 1   
@<TRIPOS>SUBSTRUCTURE
     1 MOL         1 TEMP              0 ****  ****    0 ROOT
