@<TRIPOS>MOLECULE
MOL
  182   178     1     0     0
SMALL
resp


@<TRIPOS>ATOM
      1 C1          1.2820   -6.2840    5.1760 c3        1 MOL     -0.370643
      2 C2          1.2430   -5.4630    3.8620 c         1 MOL      0.691359
      3 O1          0.4160   -5.7520    3.0050 o         1 MOL     -0.582113
      4 H1          1.9170   -7.1590    5.0380 hc        1 MOL      0.096078
      5 H2          1.6840   -5.6670    5.9790 hc        1 MOL      0.096078
      6 H3          0.2730   -6.6060    5.4350 hc        1 MOL      0.096078
      7 N1          2.1880   -4.5210    3.7680 n         1 MOL     -0.560553
      8 C3          2.3180   -3.8060    2.4660 c3        1 MOL      0.141342
      9 C4          2.8330   -4.6620    1.2830 c         1 MOL      0.423594
     10 O2          3.8810   -5.3400    1.3760 o         1 MOL     -0.508006
     11 C5          3.2750   -2.6590    2.6360 c3        1 MOL     -0.161939
     12 C6          3.2620   -1.6640    1.4370 c         1 MOL      0.652556
     13 O3          3.5430   -0.4480    1.6390 o         1 MOL     -0.731103
     14 O4          2.8650   -1.9620    0.2980 o         1 MOL     -0.731103
     15 H4          2.8750   -4.4330    4.5040 hn        1 MOL      0.328405
     16 H5          1.3330   -3.4330    2.2010 h1        1 MOL      0.054976
     17 H6          4.2440   -3.1740    2.6040 hc        1 MOL      0.051602
     18 H7          3.0680   -2.1400    3.5720 hc        1 MOL      0.051602
     19 N2          2.0350   -4.7160    0.1920 n         1 MOL     -0.010150
     20 C7          2.1830   -5.5350   -0.9600 c3        1 MOL     -0.173212
     21 C8          3.6290   -5.4610   -1.5090 c         1 MOL      0.528038
     22 O5          4.2370   -6.4520   -1.8910 o         1 MOL     -0.537616
     23 C9          1.2630   -5.1500   -1.9580 c3        1 MOL      0.017245
     24 C10        -0.2060   -5.7570   -1.7260 c3        1 MOL     -0.136003
     25 C11        -1.0420   -5.8080   -3.0350 c3        1 MOL      0.026569
     26 C12        -1.4320   -4.3820   -3.5270 c3        1 MOL      0.022581
     27 N3         -2.0720   -4.4890   -4.8750 n4        1 MOL     -0.205075
     28 H8          1.2140   -4.1250    0.2080 hn        1 MOL     -0.005463
     29 H9          1.9420   -6.5610   -0.6860 h1        1 MOL      0.101560
     30 H10         1.6950   -5.5150   -2.8830 hc        1 MOL      0.024196
     31 H11         1.1990   -4.0840   -2.1780 hc        1 MOL      0.024196
     32 H12        -0.8230   -5.2610   -0.9760 hc        1 MOL      0.086053
     33 H13        -0.0120   -6.7780   -1.4010 hc        1 MOL      0.086053
     34 H14        -1.8250   -6.5430   -2.8490 hc        1 MOL      0.022462
     35 H15        -0.4480   -6.1920   -3.8740 hc        1 MOL      0.022462
     36 H16        -0.5270   -3.7860   -3.6760 hx        1 MOL      0.048191
     37 H17        -2.1070   -3.9610   -2.7780 hx        1 MOL      0.048191
     38 H18        -2.2610   -3.5860   -5.2740 hn        1 MOL      0.242013
     39 H19        -1.4140   -4.9530   -5.4710 hn        1 MOL      0.242013
     40 H20        -2.8340   -5.1580   -4.8750 hn        1 MOL      0.242013
     41 N4          4.1770   -4.2220   -1.5690 n         1 MOL     -0.478159
     42 C13         5.3870   -3.7320   -2.2620 c3        1 MOL      0.201428
     43 C14         6.4890   -3.1470   -1.3300 c         1 MOL      0.323489
     44 O6          7.6480   -2.9730   -1.7180 o         1 MOL     -0.514971
     45 C15         4.8390   -2.6280   -3.1600 c3        1 MOL     -0.448328
     46 C16         4.0190   -1.6240   -2.4180 c         1 MOL      1.030828
     47 O7          4.6440   -0.9470   -1.6210 o         1 MOL     -0.866103
     48 O8          2.8160   -1.4670   -2.6520 o         1 MOL     -0.866103
     49 H21         3.6090   -3.5120   -1.1420 hn        1 MOL      0.415582
     50 H22         5.8590   -4.4840   -2.8880 h1        1 MOL      0.098545
     51 H23         4.2500   -3.0490   -3.9830 hc        1 MOL      0.090266
     52 H24         5.6680   -2.1040   -3.6390 hc        1 MOL      0.090266
     53 N5          6.1330   -2.8980   -0.0170 n         1 MOL     -0.059810
     54 C17         6.9990   -2.2710    1.0200 c3        1 MOL     -0.313767
     55 C18         7.4000   -0.7940    0.8860 c         1 MOL      0.707367
     56 O9          8.1700   -0.4270    1.7600 o         1 MOL     -0.571426
     57 H25         5.1590   -3.0020    0.2270 hn        1 MOL      0.034541
     58 H26         7.9300   -2.8360    1.0000 h1        1 MOL      0.138296
     59 H27         6.4960   -2.5190    1.9580 h1        1 MOL      0.138296
     60 N6          6.8540   -0.0550   -0.1200 n         1 MOL     -0.657172
     61 C19         7.2090    1.2920   -0.5300 c3        1 MOL      0.429142
     62 C20         5.9870    2.2360   -0.3850 c         1 MOL      0.264683
     63 O10         4.7860    1.7760   -0.4180 o         1 MOL     -0.379807
     64 C21         7.8290    1.2420   -1.9390 c3        1 MOL     -0.286969
     65 C22         8.2990    2.6150   -2.3440 c         1 MOL      0.606289
     66 N7          9.5180    2.9690   -1.9680 n         1 MOL     -0.787236
     67 O11         7.5760    3.4000   -3.0230 o         1 MOL     -0.567908
     68 H28         6.0310   -0.4580   -0.5460 hn        1 MOL      0.481396
     69 H29         8.0170    1.5960    0.1440 h1        1 MOL     -0.043654
     70 H30         7.0550    0.9060   -2.6330 hc        1 MOL      0.106009
     71 H31         8.6490    0.5280   -1.9520 hc        1 MOL      0.106009
     72 H32        10.1020    2.3350   -1.4370 hn        1 MOL      0.375473
     73 H33         9.8670    3.8670   -2.2730 hn        1 MOL      0.375473
     74 N8          6.2530    3.5190   -0.1780 n         1 MOL     -0.300916
     75 C23         5.2220    4.5630   -0.3040 c3        1 MOL     -0.076084
     76 C24         4.1190    4.4540    0.8200 c         1 MOL      0.547959
     77 O12         4.3980    4.5050    2.0410 o         1 MOL     -0.497671
     78 H34         7.2000    3.8590   -0.1570 hn        1 MOL      0.282898
     79 H35         4.7770    4.4620   -1.3050 h1        1 MOL      0.076571
     80 H36         5.6520    5.5510   -0.2170 h1        1 MOL      0.076571
     81 N9          2.8960    4.5280    0.3210 n         1 MOL     -0.614296
     82 C25         1.6700    4.4880    1.1790 c3        1 MOL      0.319123
     83 C26         1.4440    3.0280    1.5710 c         1 MOL      0.201490
     84 O13         2.2260    2.1700    1.1950 o         1 MOL     -0.337570
     85 C27         0.4540    5.2410    0.4870 c3        1 MOL     -0.176212
     86 C28         0.8890    6.6660    0.1140 ca        1 MOL      0.037702
     87 C29         1.4110    7.5430    1.1490 ca        1 MOL     -0.122384
     88 C30         0.9860    7.0470   -1.2140 ca        1 MOL     -0.122384
     89 C31         1.7950    8.8660    0.7410 ca        1 MOL     -0.291927
     90 C32         1.5500    8.2290   -1.6750 ca        1 MOL     -0.291927
     91 C33         1.9780    9.1370   -0.6740 ca        1 MOL      0.365167
     92 O14         2.6440   10.3080   -1.0630 oh        1 MOL     -0.507745
     93 H37         2.8780    4.6590   -0.6820 hn        1 MOL      0.329903
     94 H38         1.8340    4.8620    2.1890 h1        1 MOL      0.068601
     95 H39        -0.4370    5.2910    1.1120 hc        1 MOL      0.050849
     96 H40         0.1660    4.7620   -0.4510 hc        1 MOL      0.050849
     97 H41         1.3040    7.3290    2.2030 ha        1 MOL      0.125331
     98 H42         0.6700    6.3460   -1.9710 ha        1 MOL      0.125331
     99 H43         2.1480    9.5330    1.5190 ha        1 MOL      0.177016
    100 H44         1.7430    8.5330   -2.6960 ha        1 MOL      0.177016
    101 H45         2.9170   10.8870   -0.3310 ho        1 MOL      0.381975
    102 N10         0.3670    2.6980    2.3350 n         1 MOL     -0.416166
    103 C34        -0.0240    1.3780    2.8600 c3        1 MOL     -0.104278
    104 C35        -0.3820    0.3260    1.7660 c         1 MOL      0.284469
    105 O15         0.5210   -0.0420    0.9970 o         1 MOL     -0.175965
    106 C36         0.9640    0.8580    3.9650 c3        1 MOL      0.338631
    107 C37         0.1340   -0.1810    4.8530 c3        1 MOL     -0.106149
    108 C38         1.7420    1.9960    4.6840 c3        1 MOL     -0.210097
    109 C39         0.7860   -0.7560    6.1160 c3        1 MOL     -0.174798
    110 H46        -0.2170    3.4610    2.6500 hn        1 MOL      0.298775
    111 H47        -0.9240    1.6870    3.3880 h1        1 MOL      0.069442
    112 H48         1.6870    0.2300    3.4460 hc        1 MOL     -0.041048
    113 H49        -0.0800   -1.0400    4.2240 hc        1 MOL      0.029477
    114 H50        -0.7730    0.2990    5.2230 hc        1 MOL      0.029477
    115 H51         2.2820    1.7330    5.5990 hc        1 MOL      0.062177
    116 H52         2.4760    2.3980    3.9850 hc        1 MOL      0.062177
    117 H53         1.0430    2.7630    5.0150 hc        1 MOL      0.062177
    118 H54         1.4280   -1.5550    5.7520 hc        1 MOL      0.050439
    119 H55         1.2700   -0.0440    6.8000 hc        1 MOL      0.050439
    120 H56         0.0910   -1.2800    6.7750 hc        1 MOL      0.050439
    121 N11        -1.5900   -0.2600    1.7480 n         1 MOL     -0.280427
    122 C40        -2.1220   -0.9990    0.5870 c3        1 MOL      0.022635
    123 C41        -3.6680   -0.9990    0.4750 c         1 MOL      0.725643
    124 O16        -4.3310   -1.9930    0.8380 o         1 MOL     -0.545169
    125 C42        -1.6600   -2.4670    0.6280 c3        1 MOL     -0.024529
    126 O17        -0.3100   -2.7650    0.3040 oh        1 MOL     -0.266776
    127 H57        -2.1800   -0.1720    2.5710 hn        1 MOL      0.237768
    128 H58        -1.8740   -0.5310   -0.3700 h1        1 MOL      0.021875
    129 H59        -2.2730   -2.9470   -0.1460 h1        1 MOL      0.068675
    130 H60        -1.9690   -2.9370    1.5620 h1        1 MOL      0.068675
    131 H61         0.1590   -1.9340    0.4240 ho        1 MOL      0.165062
    132 N12        -4.3130    0.1210   -0.0050 n         1 MOL     -0.834489
    133 C43        -5.7470    0.1870   -0.1220 c3        1 MOL      0.277748
    134 C44        -5.8590    1.0560   -1.2880 c         1 MOL      0.662450
    135 O18        -5.0080    1.9060   -1.6140 o         1 MOL     -0.587780
    136 C45        -6.3090    0.8660    1.1100 c3        1 MOL     -0.375688
    137 H62        -3.8040    0.9330   -0.3160 hn        1 MOL      0.353608
    138 H63        -6.1740   -0.8070   -0.2730 h1        1 MOL      0.068071
    139 H64        -7.3890    1.0130    1.0170 hc        1 MOL      0.124082
    140 H65        -6.1720    0.1750    1.9510 hc        1 MOL      0.124082
    141 H66        -5.8540    1.8340    1.2950 hc        1 MOL      0.124082
    142 N13        -6.9660    0.9650   -2.0610 n         1 MOL     -0.731473
    143 C46        -8.0380   -0.0070   -1.9470 c3        1 MOL      0.459273
    144 C47        -9.3930    0.6800   -2.3840 c         1 MOL      0.243919
    145 O19        -9.4210    1.3090   -3.5090 o         1 MOL     -0.525903
    146 C48        -7.7800   -1.3140   -2.7260 c3        1 MOL     -0.358425
    147 H67        -7.0590    1.6510   -2.8000 hn        1 MOL      0.367808
    148 H68        -8.1190   -0.4290   -0.9380 h1        1 MOL     -0.006383
    149 H69        -6.7840   -1.7120   -2.5170 hc        1 MOL      0.095777
    150 H70        -8.4780   -2.1160   -2.4600 hc        1 MOL      0.095777
    151 H71        -7.7950   -1.0450   -3.7850 hc        1 MOL      0.095777
    152 N14       -10.5130    0.5210   -1.7250 n         1 MOL     -0.155289
    153 C49       -10.6990   -0.1260   -0.4070 c3        1 MOL     -0.590072
    154 C50       -10.1060    0.7290    0.7630 c         1 MOL      0.610099
    155 O20        -9.7940    0.1990    1.8390 o         1 MOL     -0.505350
    156 C51       -12.2400   -0.5820   -0.2500 c3        1 MOL      0.459994
    157 C52       -13.3610    0.4940   -0.0240 c3        1 MOL     -0.358690
    158 C53       -14.6630   -0.2880    0.3580 c         1 MOL      0.672339
    159 O21       -14.8900   -0.5200    1.5970 o         1 MOL     -0.640259
    160 O22       -15.3240   -0.8130   -0.5670 o         1 MOL     -0.640259
    161 H72       -11.2850    0.9260   -2.2460 hn        1 MOL      0.279553
    162 H73       -10.2230   -1.1020   -0.4850 h1        1 MOL      0.183373
    163 H74       -12.2020   -1.3440    0.5280 hc        1 MOL     -0.034396
    164 H75       -12.5330   -1.1900   -1.1010 hc        1 MOL     -0.034396
    165 H76       -13.4760    0.9620   -1.0030 hc        1 MOL      0.053811
    166 H77       -13.0870    1.0860    0.8540 hc        1 MOL      0.053811
    167 N15        -9.9800    2.0910    0.6240 n         1 MOL     -0.287415
    168 C54        -9.4100    2.9900    1.6550 c3        1 MOL     -0.146836
    169 H78       -10.1600    3.7240    1.9500 h1        1 MOL      0.085553
    170 H79        -9.1140    2.4030    2.5250 h1        1 MOL      0.085553
    171 H80        -8.5390    3.5040    1.2480 h1        1 MOL      0.085553
    172 H81       -10.4240    2.4650   -0.2080 hn        1 MOL      0.234377
    173 Ca1         2.3960    0.3840   -0.7060 Ca        1 MOL      1.684822
    174 O23         0.4730    2.3110   -1.2200 oh        1 MOL     -0.879403
    175 H82        -0.4230    1.9980   -1.3310 ho        1 MOL      0.422540
    176 H83         0.4550    3.2250   -1.4830 ho        1 MOL      0.422540
    177 O24         0.4400   -0.8090   -2.0190 oh        1 MOL     -0.879403
    178 H84         1.0160   -1.0590   -2.7410 ho        1 MOL      0.422540
    179 H85        -0.3990   -0.6200   -2.4410 ho        1 MOL      0.422540
    180 O25         2.8080    1.9810   -2.8790 oh        1 MOL     -0.879403
    181 H86         3.5600    2.0110   -3.4720 ho        1 MOL      0.422540
    182 H87         2.1380    2.4980   -3.3290 ho        1 MOL      0.422540
@<TRIPOS>BOND
     1    1    2 1   
     2    1    4 1   
     3    1    5 1   
     4    1    6 1   
     5    2    3 2   
     6    2    7 1   
     7    7    8 1   
     8    7   15 1   
     9    8    9 1   
    10    8   11 1   
    11    8   16 1   
    12    9   10 2   
    13    9   19 1   
    14   11   12 1   
    15   11   17 1   
    16   11   18 1   
    17   12   13 1   
    18   12   14 1   
    19   19   20 1   
    20   19   28 1   
    21   20   21 1   
    22   20   23 1   
    23   20   29 1   
    24   21   22 2   
    25   21   41 1   
    26   23   24 1   
    27   23   30 1   
    28   23   31 1   
    29   24   25 1   
    30   24   32 1   
    31   24   33 1   
    32   25   26 1   
    33   25   34 1   
    34   25   35 1   
    35   26   27 1   
    36   26   36 1   
    37   26   37 1   
    38   27   38 1   
    39   27   39 1   
    40   27   40 1   
    41   41   42 1   
    42   41   49 1   
    43   42   43 1   
    44   42   45 1   
    45   42   50 1   
    46   43   44 2   
    47   43   53 1   
    48   45   46 1   
    49   45   51 1   
    50   45   52 1   
    51   46   47 1   
    52   46   48 1   
    53   53   54 1   
    54   53   57 1   
    55   54   55 1   
    56   54   58 1   
    57   54   59 1   
    58   55   56 2   
    59   55   60 1   
    60   60   61 1   
    61   60   68 1   
    62   61   62 1   
    63   61   64 1   
    64   61   69 1   
    65   62   63 2   
    66   62   74 1   
    67   64   65 1   
    68   64   70 1   
    69   64   71 1   
    70   65   66 1   
    71   65   67 2   
    72   66   72 1   
    73   66   73 1   
    74   74   75 1   
    75   74   78 1   
    76   75   76 1   
    77   75   79 1   
    78   75   80 1   
    79   76   77 2   
    80   76   81 1   
    81   81   82 1   
    82   81   93 1   
    83   82   83 1   
    84   82   85 1   
    85   82   94 1   
    86   83   84 2   
    87   83  102 1   
    88   85   86 1   
    89   85   95 1   
    90   85   96 1   
    91   86   87 ar  
    92   86   88 ar  
    93   87   89 ar  
    94   87   97 1   
    95   88   90 ar  
    96   88   98 1   
    97   89   91 ar  
    98   89   99 1   
    99   90   91 ar  
   100   90  100 1   
   101   91   92 1   
   102   92  101 1   
   103  102  103 1   
   104  102  110 1   
   105  103  104 1   
   106  103  106 1   
   107  103  111 1   
   108  104  105 2   
   109  104  121 1   
   110  106  107 1   
   111  106  108 1   
   112  106  112 1   
   113  107  109 1   
   114  107  113 1   
   115  107  114 1   
   116  108  115 1   
   117  108  116 1   
   118  108  117 1   
   119  109  118 1   
   120  109  119 1   
   121  109  120 1   
   122  121  122 1   
   123  121  127 1   
   124  122  123 1   
   125  122  125 1   
   126  122  128 1   
   127  123  124 2   
   128  123  132 1   
   129  125  126 1   
   130  125  129 1   
   131  125  130 1   
   132  126  131 1   
   133  132  133 1   
   134  132  137 1   
   135  133  134 1   
   136  133  136 1   
   137  133  138 1   
   138  134  135 2   
   139  134  142 1   
   140  136  139 1   
   141  136  140 1   
   142  136  141 1   
   143  142  143 1   
   144  142  147 1   
   145  143  144 1   
   146  143  146 1   
   147  143  148 1   
   148  144  145 2   
   149  144  152 1   
   150  146  149 1   
   151  146  150 1   
   152  146  151 1   
   153  152  153 1   
   154  152  161 1   
   155  153  154 1   
   156  153  156 1   
   157  153  162 1   
   158  154  155 2   
   159  154  167 1   
   160  156  157 1   
   161  156  163 1   
   162  156  164 1   
   163  157  158 1   
   164  157  165 1   
   165  157  166 1   
   166  158  159 1   
   167  158  160 1   
   168  167  168 1   
   169  167  172 1   
   170  168  169 1   
   171  168  170 1   
   172  168  171 1   
   173  174  175 1   
   174  174  176 1   
   175  177  178 1   
   176  177  179 1   
   177  180  181 1   
   178  180  182 1   
@<TRIPOS>SUBSTRUCTURE
     1 MOL         1 TEMP              0 ****  ****    0 ROOT
