@<TRIPOS>MOLECULE
MOL
  195   189     1     0     0
SMALL
resp


@<TRIPOS>ATOM
      1 C1          1.6950    3.8900    3.3840 c3        1 MOL      0.107144
      2 C2          0.9060    4.0190    2.0300 c         1 MOL      0.728201
      3 O1          0.1640    3.0740    1.6840 o         1 MOL     -0.535595
      4 H1          2.7030    4.2850    3.2570 hc        1 MOL     -0.062483
      5 H2          1.1790    4.4560    4.1600 hc        1 MOL     -0.062483
      6 H3          1.7500    2.8410    3.6740 hc        1 MOL     -0.062483
      7 N1          1.1650    5.0010    1.1520 n         1 MOL     -0.542373
      8 C3          0.6120    5.1940   -0.1640 c3        1 MOL      0.063390
      9 C4         -0.9550    5.1840   -0.2550 c         1 MOL      0.632321
     10 O2         -1.5170    4.9520   -1.3440 o         1 MOL     -0.492614
     11 C5          1.3770    4.3710   -1.2200 c3        1 MOL     -0.704917
     12 C6          2.8910    4.5170   -1.2610 c         1 MOL      1.138946
     13 O3          3.3540    5.6820   -0.9140 o         1 MOL     -0.815007
     14 O4          3.6560    3.5920   -1.5070 o         1 MOL     -0.815007
     15 H4          1.7730    5.7020    1.5620 hn        1 MOL      0.212867
     16 H5          0.9820    6.1980   -0.3410 h1        1 MOL      0.080172
     17 H6          1.0600    4.7450   -2.1980 hc        1 MOL      0.199980
     18 H7          1.0780    3.3200   -1.1380 hc        1 MOL      0.199980
     19 N2         -1.6550    5.5590    0.8560 n         1 MOL     -0.539726
     20 C7         -3.0960    5.4850    1.0280 c3        1 MOL     -0.078106
     21 C8         -3.9510    6.6300    0.2580 c         1 MOL      0.376077
     22 O5         -3.4090    7.6300   -0.2010 o         1 MOL     -0.526009
     23 C9         -3.5010    5.3490    2.5080 c3        1 MOL      0.224535
     24 C10        -3.4630    6.7310    3.2170 c3        1 MOL      0.066064
     25 C11        -2.5670    4.3010    3.1540 c3        1 MOL     -0.219608
     26 C12        -4.6220    6.8420    4.2910 c3        1 MOL     -0.460633
     27 H8         -1.1000    6.0230    1.5660 hn        1 MOL      0.294032
     28 H9         -3.2880    4.5130    0.5670 h1        1 MOL      0.183912
     29 H10        -4.4930    4.8850    2.5670 hc        1 MOL      0.033542
     30 H11        -3.7070    7.5610    2.5520 hc        1 MOL      0.007148
     31 H12        -2.4330    7.0090    3.4540 hc        1 MOL      0.007148
     32 H13        -3.0250    4.0840    4.1200 hc        1 MOL      0.024125
     33 H14        -2.5070    3.4320    2.5000 hc        1 MOL      0.024125
     34 H15        -1.5670    4.7160    3.2890 hc        1 MOL      0.024125
     35 H16        -4.4770    7.7410    4.8920 hc        1 MOL      0.117212
     36 H17        -5.4830    6.7940    3.6250 hc        1 MOL      0.117212
     37 H18        -4.6390    5.9120    4.8670 hc        1 MOL      0.117212
     38 N3         -5.2780    6.4240    0.0620 n         1 MOL     -0.358082
     39 C13        -6.2460    5.3310    0.2910 c3        1 MOL     -0.031855
     40 C14        -5.9350    3.9560   -0.4490 c         1 MOL      0.423000
     41 O6         -6.2570    2.9080    0.0040 o         1 MOL     -0.425358
     42 C15        -7.5930    5.8560   -0.1390 c3        1 MOL     -0.263389
     43 C16        -8.7120    4.7810   -0.1200 c         1 MOL      0.674774
     44 O7         -9.0750    4.2290   -1.2120 o         1 MOL     -0.666561
     45 O8         -9.2560    4.4950    0.9810 o         1 MOL     -0.666561
     46 H19        -5.6190    7.2160   -0.4690 hn        1 MOL      0.260986
     47 H20        -6.2920    5.0610    1.3480 h1        1 MOL      0.073636
     48 H21        -7.5480    6.3330   -1.1200 hc        1 MOL      0.048295
     49 H22        -7.8280    6.6480    0.5820 hc        1 MOL      0.048295
     50 N4         -5.1790    4.2010   -1.5410 n         1 MOL     -0.213815
     51 C17        -4.4550    3.1180   -2.1900 c3        1 MOL     -0.482338
     52 C18        -5.3350    1.8980   -2.6820 c         1 MOL      0.664991
     53 O9         -6.4230    2.0820   -3.2220 o         1 MOL     -0.552782
     54 H23        -5.1880    5.0560   -2.0750 hn        1 MOL      0.295579
     55 H24        -3.6470    2.8240   -1.5300 h1        1 MOL      0.170789
     56 H25        -4.0380    3.6130   -3.0670 h1        1 MOL      0.170789
     57 N5         -4.8500    0.6720   -2.6990 n         1 MOL     -0.452933
     58 C19        -5.5500   -0.5290   -3.3080 c3        1 MOL      0.006193
     59 C20        -6.3980   -1.4050   -2.2970 c         1 MOL      0.318027
     60 O10        -6.8740   -2.4310   -2.6840 o         1 MOL     -0.452155
     61 C21        -4.4390   -1.4630   -3.9070 c3        1 MOL     -0.112757
     62 C22        -3.3460   -1.7350   -2.9100 c         1 MOL      0.797435
     63 O11        -2.3320   -1.0350   -3.0560 o         1 MOL     -0.724026
     64 O12        -3.5470   -2.5290   -1.9690 o         1 MOL     -0.724026
     65 H26        -4.0100    0.6260   -2.1340 hn        1 MOL      0.294140
     66 H27        -6.1750   -0.1990   -4.1430 h1        1 MOL      0.126010
     67 H28        -4.0170   -0.8980   -4.7400 hc        1 MOL     -0.003580
     68 H29        -4.8530   -2.4010   -4.2830 hc        1 MOL     -0.003580
     69 N6         -6.5240   -1.0770   -0.9630 n         1 MOL     -0.104123
     70 C23        -7.2610   -1.8330    0.0530 c3        1 MOL     -0.488434
     71 C24        -6.8000   -3.2460    0.4110 c         1 MOL      0.537074
     72 O13        -7.3990   -3.9010    1.2870 o         1 MOL     -0.610329
     73 H30        -5.9420   -0.2980   -0.7050 hn        1 MOL      0.209368
     74 H31        -8.2490   -1.9480   -0.3790 h1        1 MOL      0.192601
     75 H32        -7.2060   -1.2590    0.9720 h1        1 MOL      0.192601
     76 N7         -5.8030   -3.8140   -0.2420 n         1 MOL      0.062492
     77 C25        -5.2170   -5.1530   -0.0420 c3        1 MOL      0.011191
     78 C26        -4.6380   -5.4260    1.3310 c         1 MOL      0.494756
     79 O14        -4.6360   -6.5350    1.8070 o         1 MOL     -0.532154
     80 C27        -6.2020   -6.2130   -0.5990 c3        1 MOL     -0.056519
     81 C28        -6.2640   -6.0770   -2.1280 c3        1 MOL      0.051063
     82 C29        -7.1640   -7.1580   -2.6270 c         1 MOL      0.489777
     83 N8         -8.4180   -6.8020   -2.7190 n         1 MOL     -0.708834
     84 O15        -6.6520   -8.2180   -2.9850 o         1 MOL     -0.565891
     85 H33        -5.3600   -3.2630   -0.9670 hn        1 MOL     -0.002718
     86 H34        -4.3250   -5.2330   -0.6700 h1        1 MOL      0.101876
     87 H35        -7.1800   -6.0790   -0.1350 hc        1 MOL      0.032942
     88 H36        -5.6440   -7.1420   -0.5010 hc        1 MOL      0.032942
     89 H37        -5.2720   -6.2880   -2.5440 hc        1 MOL      0.009347
     90 H38        -6.6860   -5.1280   -2.4760 hc        1 MOL      0.009347
     91 H39        -8.6840   -5.8280   -2.6230 hn        1 MOL      0.338618
     92 H40        -9.0250   -7.5030   -3.1290 hn        1 MOL      0.338618
     93 N9         -4.1700   -4.3740    2.0420 n         1 MOL     -0.406556
     94 C30        -3.5770   -4.3240    3.3450 c3        1 MOL      0.044141
     95 C31        -2.1750   -3.6890    3.4670 c         1 MOL      0.621361
     96 O16        -1.6000   -3.8690    4.5000 o         1 MOL     -0.595241
     97 C32        -4.6110   -3.7190    4.3280 c3        1 MOL      0.420915
     98 C33        -4.6580   -2.1540    4.1770 c3        1 MOL     -0.403060
     99 C34        -5.9880   -4.3160    4.3530 c3        1 MOL     -0.403060
    100 H41        -4.1420   -3.4770    1.5710 hn        1 MOL      0.213315
    101 H42        -3.4310   -5.3640    3.6500 h1        1 MOL      0.046163
    102 H43        -4.1920   -3.9510    5.3090 hc        1 MOL     -0.100440
    103 H44        -5.3480   -1.7110    4.8970 hc        1 MOL      0.088291
    104 H45        -3.6740   -1.6870    4.2460 hc        1 MOL      0.088291
    105 H46        -4.9610   -1.9420    3.1470 hc        1 MOL      0.088291
    106 H47        -5.9200   -5.3890    4.1920 hc        1 MOL      0.088291
    107 H48        -6.4770   -4.0060    5.2750 hc        1 MOL      0.088291
    108 H49        -6.5750   -3.8100    3.5890 hc        1 MOL      0.088291
    109 N10        -1.7000   -2.9950    2.4470 n         1 MOL     -0.718555
    110 C35        -0.3610   -2.3830    2.5470 c3        1 MOL      0.658689
    111 C36         0.3650   -2.5530    1.1710 c         1 MOL      0.341828
    112 O17        -0.2720   -2.9480    0.1440 o         1 MOL     -0.482937
    113 C37        -0.5110   -0.9210    2.9830 c3        1 MOL     -0.208925
    114 C38         0.7070   -0.2730    3.6630 c         1 MOL      0.500049
    115 N11         0.6070    0.2350    4.8510 n         1 MOL     -0.745893
    116 O18         1.7440   -0.2990    3.0800 o         1 MOL     -0.487221
    117 H50        -2.1530   -2.9740    1.5410 hn        1 MOL      0.301154
    118 H51         0.2720   -2.8900    3.2730 h1        1 MOL     -0.049646
    119 H52        -1.3340   -0.9750    3.6990 hc        1 MOL      0.076480
    120 H53        -0.7550   -0.3010    2.1160 hc        1 MOL      0.076480
    121 H54        -0.2310    0.2060    5.4190 hn        1 MOL      0.359128
    122 H55         1.4310    0.7390    5.1260 hn        1 MOL      0.359128
    123 N12         1.6940   -2.2580    1.0790 n         1 MOL     -0.536412
    124 C39         2.6100   -2.8040    0.0200 c3        1 MOL      0.003311
    125 C40         3.9700   -2.8780    0.6520 c         1 MOL      0.720160
    126 O19         4.3120   -2.0050    1.4150 o         1 MOL     -0.627196
    127 C41         2.4960   -1.9660   -1.2650 c3        1 MOL      0.160226
    128 C42         2.6680   -2.7830   -2.5130 ca        1 MOL     -0.044297
    129 C43         3.9660   -2.9640   -3.0970 ca        1 MOL     -0.175066
    130 C44         1.5380   -3.3690   -3.1310 ca        1 MOL     -0.175066
    131 C45         3.9860   -3.9820   -4.1500 ca        1 MOL     -0.196327
    132 C46         1.6280   -4.2390   -4.1980 ca        1 MOL     -0.196327
    133 C47         2.8410   -4.5320   -4.7130 ca        1 MOL      0.269112
    134 O20         2.9150   -5.4350   -5.7360 oh        1 MOL     -0.491300
    135 H56         2.2340   -1.8690    1.8300 hn        1 MOL      0.291114
    136 H57         2.4180   -3.8140   -0.3480 h1        1 MOL      0.069730
    137 H58         3.2920   -1.2160   -1.2790 hc        1 MOL      0.040030
    138 H59         1.6140   -1.3250   -1.2740 hc        1 MOL      0.040030
    139 H60         4.8760   -2.4810   -2.7640 ha        1 MOL      0.172382
    140 H61         0.5840   -3.3330   -2.6260 ha        1 MOL      0.172382
    141 H62         4.9270   -4.2850   -4.5690 ha        1 MOL      0.124525
    142 H63         0.7810   -4.8470   -4.5030 ha        1 MOL      0.124525
    143 H64         3.8110   -5.6750   -6.0150 ho        1 MOL      0.338890
    144 N13         4.7390   -3.8920    0.2510 n         1 MOL     -0.640580
    145 C48         6.1680   -4.0020    0.4760 c3        1 MOL      0.275852
    146 C49         7.0620   -3.3090   -0.6590 c         1 MOL      0.551595
    147 O21         7.2810   -3.8060   -1.7600 o         1 MOL     -0.580784
    148 C50         6.5240   -5.4540    0.8010 c3        1 MOL     -0.002162
    149 C51         7.9560   -5.4850    1.2490 c3        1 MOL     -0.347463
    150 C52         8.3140   -6.9070    1.7830 c         1 MOL      0.696753
    151 O22         9.4290   -7.3300    1.3940 o         1 MOL     -0.698482
    152 O23         7.7050   -7.3830    2.7570 o         1 MOL     -0.698482
    153 H65         4.4380   -4.5900   -0.4090 hn        1 MOL      0.277916
    154 H66         6.4130   -3.4750    1.3930 h1        1 MOL      0.023893
    155 H67         6.3540   -6.0930   -0.0640 hc        1 MOL      0.013192
    156 H68         5.8840   -5.7200    1.6430 hc        1 MOL      0.013192
    157 H69         8.0260   -4.8330    2.1170 hc        1 MOL      0.115883
    158 H70         8.6160   -5.2500    0.4050 hc        1 MOL      0.115883
    159 N14         7.6910   -2.1260   -0.4600 n         1 MOL     -0.723452
    160 C53         7.3330   -1.0210    0.5180 c3        1 MOL      0.228093
    161 C54         7.8740   -1.2090    1.9200 c         1 MOL      0.535177
    162 O24         8.9660   -1.7580    2.1160 o         1 MOL     -0.569996
    163 C55         7.6940    0.3030   -0.1590 c3        1 MOL      0.002015
    164 C56         6.7170    0.6880   -1.3000 c3        1 MOL     -0.106539
    165 C57         7.0790    2.0100   -1.9670 c         1 MOL      0.824428
    166 O25         7.0730    3.0540   -1.3800 o         1 MOL     -0.723565
    167 O26         7.3070    1.8640   -3.1910 o         1 MOL     -0.723565
    168 H71         8.3950   -2.0090   -1.1660 hn        1 MOL      0.407304
    169 H72         6.2470   -1.0030    0.6200 h1        1 MOL      0.061184
    170 H73         8.6830    0.1860   -0.6080 hc        1 MOL     -0.068365
    171 H74         7.6650    1.0710    0.6180 hc        1 MOL     -0.068365
    172 H75         5.7500    0.8410   -0.8310 hc        1 MOL     -0.000618
    173 H76         6.5990   -0.1190   -2.0330 hc        1 MOL     -0.000618
    174 N15         7.1020   -0.7880    2.9260 n         1 MOL     -0.286718
    175 C58         7.3960   -0.8700    4.3540 c3        1 MOL     -0.419845
    176 H77         8.4730   -0.8040    4.5070 h1        1 MOL      0.151029
    177 H78         6.9030   -0.0480    4.8740 h1        1 MOL      0.151029
    178 H79         7.0310   -1.8200    4.7470 h1        1 MOL      0.151029
    179 H80         6.1930   -0.3790    2.7530 hn        1 MOL      0.281979
    180 Ca1         5.8360    5.1790   -0.8260 Ca        1 MOL      1.626563
    181 O27         7.9200    6.7230   -0.1640 oh        1 MOL     -0.820258
    182 H81         8.2710    6.7200    0.7260 ho        1 MOL      0.388826
    183 H82         8.6140    7.1390   -0.6820 ho        1 MOL      0.388826
    184 O28         5.7320    4.6480   -3.4520 oh        1 MOL     -0.820258
    185 H83         5.4580    3.7290   -3.5310 ho        1 MOL      0.388826
    186 H84         6.6680    4.6280   -3.6340 ho        1 MOL      0.388826
    187 O29         4.9950    3.6500    1.0850 oh        1 MOL     -0.820258
    188 H85         4.3490    2.9580    1.1980 ho        1 MOL      0.388826
    189 H86         5.5640    3.5710    1.8570 ho        1 MOL      0.388826
    190 O30         5.6170    7.4260   -2.3270 oh        1 MOL     -0.820258
    191 H87         6.2610    7.9180   -2.8480 ho        1 MOL      0.388826
    192 H88         4.9130    8.0480   -2.1590 ho        1 MOL      0.388826
    193 O31         8.2390    5.5250   -2.8490 oh        1 MOL     -0.820258
    194 H89         8.7170    6.3380   -3.0330 ho        1 MOL      0.388826
    195 H90         8.8040    4.8350   -3.1920 ho        1 MOL      0.388826
@<TRIPOS>BOND
     1    1    2 1   
     2    1    4 1   
     3    1    5 1   
     4    1    6 1   
     5    2    3 2   
     6    2    7 1   
     7    7    8 1   
     8    7   15 1   
     9    8    9 1   
    10    8   11 1   
    11    8   16 1   
    12    9   10 2   
    13    9   19 1   
    14   11   12 1   
    15   11   17 1   
    16   11   18 1   
    17   12   13 1   
    18   12   14 1   
    19   19   20 1   
    20   19   27 1   
    21   20   21 1   
    22   20   23 1   
    23   20   28 1   
    24   21   22 2   
    25   21   38 1   
    26   23   24 1   
    27   23   25 1   
    28   23   29 1   
    29   24   26 1   
    30   24   30 1   
    31   24   31 1   
    32   25   32 1   
    33   25   33 1   
    34   25   34 1   
    35   26   35 1   
    36   26   36 1   
    37   26   37 1   
    38   38   39 1   
    39   38   46 1   
    40   39   40 1   
    41   39   42 1   
    42   39   47 1   
    43   40   41 2   
    44   40   50 1   
    45   42   43 1   
    46   42   48 1   
    47   42   49 1   
    48   43   44 1   
    49   43   45 1   
    50   50   51 1   
    51   50   54 1   
    52   51   52 1   
    53   51   55 1   
    54   51   56 1   
    55   52   53 2   
    56   52   57 1   
    57   57   58 1   
    58   57   65 1   
    59   58   59 1   
    60   58   61 1   
    61   58   66 1   
    62   59   60 2   
    63   59   69 1   
    64   61   62 1   
    65   61   67 1   
    66   61   68 1   
    67   62   63 1   
    68   62   64 1   
    69   69   70 1   
    70   69   73 1   
    71   70   71 1   
    72   70   74 1   
    73   70   75 1   
    74   71   72 2   
    75   71   76 1   
    76   76   77 1   
    77   76   85 1   
    78   77   78 1   
    79   77   80 1   
    80   77   86 1   
    81   78   79 2   
    82   78   93 1   
    83   80   81 1   
    84   80   87 1   
    85   80   88 1   
    86   81   82 1   
    87   81   89 1   
    88   81   90 1   
    89   82   83 1   
    90   82   84 2   
    91   83   91 1   
    92   83   92 1   
    93   93   94 1   
    94   93  100 1   
    95   94   95 1   
    96   94   97 1   
    97   94  101 1   
    98   95   96 2   
    99   95  109 1   
   100   97   98 1   
   101   97   99 1   
   102   97  102 1   
   103   98  103 1   
   104   98  104 1   
   105   98  105 1   
   106   99  106 1   
   107   99  107 1   
   108   99  108 1   
   109  109  110 1   
   110  109  117 1   
   111  110  111 1   
   112  110  113 1   
   113  110  118 1   
   114  111  112 2   
   115  111  123 1   
   116  113  114 1   
   117  113  119 1   
   118  113  120 1   
   119  114  115 1   
   120  114  116 2   
   121  115  121 1   
   122  115  122 1   
   123  123  124 1   
   124  123  135 1   
   125  124  125 1   
   126  124  127 1   
   127  124  136 1   
   128  125  126 2   
   129  125  144 1   
   130  127  128 1   
   131  127  137 1   
   132  127  138 1   
   133  128  129 ar  
   134  128  130 ar  
   135  129  131 ar  
   136  129  139 1   
   137  130  132 ar  
   138  130  140 1   
   139  131  133 ar  
   140  131  141 1   
   141  132  133 ar  
   142  132  142 1   
   143  133  134 1   
   144  134  143 1   
   145  144  145 1   
   146  144  153 1   
   147  145  146 1   
   148  145  148 1   
   149  145  154 1   
   150  146  147 2   
   151  146  159 1   
   152  148  149 1   
   153  148  155 1   
   154  148  156 1   
   155  149  150 1   
   156  149  157 1   
   157  149  158 1   
   158  150  151 1   
   159  150  152 1   
   160  159  160 1   
   161  159  168 1   
   162  160  161 1   
   163  160  163 1   
   164  160  169 1   
   165  161  162 2   
   166  161  174 1   
   167  163  164 1   
   168  163  170 1   
   169  163  171 1   
   170  164  165 1   
   171  164  172 1   
   172  164  173 1   
   173  165  166 1   
   174  165  167 1   
   175  174  175 1   
   176  174  179 1   
   177  175  176 1   
   178  175  177 1   
   179  175  178 1   
   180  181  182 1   
   181  181  183 1   
   182  184  185 1   
   183  184  186 1   
   184  187  188 1   
   185  187  189 1   
   186  190  191 1   
   187  190  192 1   
   188  193  194 1   
   189  193  195 1   
@<TRIPOS>SUBSTRUCTURE
     1 MOL         1 TEMP              0 ****  ****    0 ROOT
