@<TRIPOS>MOLECULE
MOL
  181   177     1     0     0
SMALL
resp


@<TRIPOS>ATOM
      1 C1          4.3250   -0.9590    4.1780 c3        1 MOL     -0.472362
      2 C2          5.5330   -0.1320    3.6900 c         1 MOL      0.581288
      3 O1          5.3200    0.7860    2.8440 o         1 MOL     -0.594695
      4 H1          4.6600   -1.6890    4.9160 hc        1 MOL      0.132357
      5 H2          3.5890   -0.2950    4.6330 hc        1 MOL      0.132357
      6 H3          3.8730   -1.4780    3.3330 hc        1 MOL      0.132357
      7 N1          6.7280   -0.5670    3.9910 n         1 MOL     -0.397322
      8 C3          7.9850   -0.1750    3.3730 c3        1 MOL     -0.021153
      9 C4          8.1360   -0.9290    1.9820 c         1 MOL      0.601277
     10 O2          8.1000   -2.1780    1.9270 o         1 MOL     -0.547851
     11 C5          9.1300   -0.5920    4.3100 c3        1 MOL     -0.203346
     12 C6         10.5410   -0.2760    3.7660 c         1 MOL      0.724653
     13 O3         10.7770    0.3300    2.6870 o         1 MOL     -0.723529
     14 O4         11.4570   -0.7720    4.4310 o         1 MOL     -0.723529
     15 H4          6.6880   -1.2700    4.7130 hn        1 MOL      0.274858
     16 H5          7.8900    0.9080    3.3880 h1        1 MOL      0.079445
     17 H6          9.0610   -1.6720    4.4060 hc        1 MOL      0.036177
     18 H7          8.8880   -0.2290    5.3130 hc        1 MOL      0.036177
     19 N2          8.3710   -0.1880    0.8670 n         1 MOL     -0.401008
     20 C7          8.7250   -0.7270   -0.4700 c3        1 MOL      0.219201
     21 C8          7.5080   -1.3640   -1.2630 c         1 MOL      0.312315
     22 O5          7.6680   -2.0800   -2.3020 o         1 MOL     -0.505073
     23 C9          9.4700    0.3740   -1.2310 c3        1 MOL     -0.297767
     24 H8          8.5720    0.7990    0.9480 hn        1 MOL      0.216651
     25 H9          9.4860   -1.4810   -0.2630 h1        1 MOL      0.093579
     26 H10         9.8070    0.0240   -2.2050 hc        1 MOL      0.079062
     27 H11         8.7490    1.1560   -1.4850 hc        1 MOL      0.079062
     28 H12        10.2040    0.8770   -0.6030 hc        1 MOL      0.079062
     29 N3          6.2660   -1.0310   -0.7860 n         1 MOL     -0.347687
     30 C10         4.9630   -1.5550   -1.3100 c3        1 MOL      0.092186
     31 C11         4.7000   -1.2520   -2.8230 c         1 MOL      0.437709
     32 O6          3.7940   -1.8590   -3.4330 o         1 MOL     -0.545368
     33 C12         4.7630   -3.0490   -1.0210 c3        1 MOL     -0.036551
     34 C13         3.2960   -3.5620   -1.1020 c         1 MOL      0.668921
     35 O7          2.9650   -4.7560   -1.0090 o         1 MOL     -0.742559
     36 O8          2.3440   -2.7320   -1.1370 o         1 MOL     -0.742559
     37 H13         6.0740   -0.2300   -0.2020 hn        1 MOL      0.220313
     38 H14         4.2560   -0.8870   -0.8240 h1        1 MOL      0.092449
     39 H15         5.0660   -3.2200    0.0180 hc        1 MOL      0.043070
     40 H16         5.3510   -3.7650   -1.6050 hc        1 MOL      0.043070
     41 N4          5.3300   -0.2630   -3.3820 n         1 MOL     -0.164041
     42 C14         5.0350    0.2990   -4.6980 c3        1 MOL     -0.380609
     43 C15         3.8310    1.1810   -4.7760 c         1 MOL      0.608587
     44 O9          3.3570    1.4710   -5.8870 o         1 MOL     -0.558002
     45 H17         5.8580    0.3830   -2.8120 hn        1 MOL      0.232796
     46 H18         4.8150   -0.4890   -5.4240 h1        1 MOL      0.160593
     47 H19         5.8770    0.8570   -5.1090 h1        1 MOL      0.160593
     48 N5          3.3160    1.5930   -3.5500 n         1 MOL     -0.478453
     49 C16         1.9400    2.1800   -3.3970 c3        1 MOL      0.023558
     50 C17         2.0050    3.4390   -2.5510 c         1 MOL      0.430013
     51 O10         2.7010    3.6030   -1.5550 o         1 MOL     -0.497025
     52 C18         1.0060    1.0680   -2.8670 c3        1 MOL      0.031740
     53 C19        -0.3800    1.1520   -3.2790 c         1 MOL      0.532041
     54 N6         -1.0520    0.0440   -3.1540 n         1 MOL     -0.745078
     55 O11        -0.9080    2.1910   -3.6910 o         1 MOL     -0.585906
     56 H20         3.8560    1.4080   -2.7220 hn        1 MOL      0.254633
     57 H21         1.4960    2.4140   -4.3650 h1        1 MOL      0.067511
     58 H22         0.9450    0.9210   -1.7900 hc        1 MOL      0.062638
     59 H23         1.5080    0.1330   -3.0980 hc        1 MOL      0.062638
     60 H24        -0.6720   -0.8910   -3.0410 hn        1 MOL      0.343415
     61 H25        -2.0020    0.0750   -3.5070 hn        1 MOL      0.343415
     62 N7          1.2280    4.4350   -3.0060 n         1 MOL     -0.317909
     63 C20         1.3880    5.8110   -2.6260 c3        1 MOL     -0.011630
     64 C21         0.1150    6.2490   -1.8740 c         1 MOL      0.522772
     65 O12        -0.9870    5.9070   -2.3760 o         1 MOL     -0.502306
     66 H26         0.7780    4.1870   -3.8680 hn        1 MOL      0.268048
     67 H27         1.5750    6.4650   -3.4700 h1        1 MOL      0.051620
     68 H28         2.2390    5.8500   -1.9400 h1        1 MOL      0.051620
     69 N8          0.2130    7.0170   -0.7970 n         1 MOL     -0.511426
     70 C22        -0.9560    7.2340    0.0420 c3        1 MOL     -0.098587
     71 C23        -1.4090    6.0020    0.8610 c         1 MOL      0.558171
     72 O13        -2.5300    6.0700    1.3570 o         1 MOL     -0.572273
     73 C24        -0.7390    8.5190    0.8600 c3        1 MOL      0.447156
     74 C25         0.4300    8.3740    1.9040 c3        1 MOL     -0.408672
     75 O14        -0.3490    9.6220    0.0080 oh        1 MOL     -0.648004
     76 H29         1.1260    7.3010   -0.4770 hn        1 MOL      0.288166
     77 H30        -1.7780    7.4370   -0.6510 h1        1 MOL      0.137947
     78 H31        -1.7250    8.7240    1.2830 h1        1 MOL      0.027030
     79 H32         0.5600    9.5430   -0.2890 ho        1 MOL      0.390129
     80 H33         0.0080    8.0250    2.8550 hc        1 MOL      0.099751
     81 H34         1.1890    7.6620    1.5940 hc        1 MOL      0.099751
     82 H35         0.9340    9.3100    2.1220 hc        1 MOL      0.099751
     83 N9         -0.6260    4.9050    0.9930 n         1 MOL     -0.414300
     84 C26        -1.0190    3.6710    1.7700 c3        1 MOL      0.026166
     85 C27        -0.9250    2.3590    0.9440 c         1 MOL      0.555041
     86 O15        -0.0990    2.1950    0.0700 o         1 MOL     -0.510237
     87 C28        -0.0600    3.5850    3.0330 c3        1 MOL      0.229902
     88 C29         0.0230    4.7930    3.9130 c3        1 MOL     -0.005922
     89 C30        -0.5110    2.4060    3.9430 c3        1 MOL     -0.289900
     90 C31        -1.3500    5.1820    4.5940 c3        1 MOL     -0.152580
     91 H36         0.3050    4.9430    0.6030 hn        1 MOL      0.271672
     92 H37        -2.0360    3.7370    2.1640 h1        1 MOL      0.074028
     93 H38         0.9630    3.4270    2.6800 hc        1 MOL     -0.000176
     94 H39         0.3610    5.7190    3.4430 hc        1 MOL     -0.010628
     95 H40         0.7430    4.5430    4.6910 hc        1 MOL     -0.010628
     96 H41         0.0420    2.4800    4.8760 hc        1 MOL      0.069061
     97 H42        -1.5740    2.4440    4.1960 hc        1 MOL      0.069061
     98 H43        -0.1710    1.4950    3.4590 hc        1 MOL      0.069061
     99 H44        -1.6440    4.3820    5.2710 hc        1 MOL      0.036846
    100 H45        -1.2740    6.1400    5.1190 hc        1 MOL      0.036846
    101 H46        -2.2470    5.3260    3.9810 hc        1 MOL      0.036846
    102 N10        -1.8570    1.3880    1.1760 n         1 MOL     -0.575025
    103 C32        -1.8750    0.1380    0.4450 c3        1 MOL      0.450055
    104 C33        -3.2890   -0.1230   -0.1020 c         1 MOL      0.455929
    105 O16        -3.6100   -1.2740   -0.2500 o         1 MOL     -0.518605
    106 C34        -1.2020   -0.9680    1.2320 c3        1 MOL     -0.206970
    107 C35        -0.8580   -2.2890    0.2680 c         1 MOL      0.625025
    108 O17        -1.0720   -2.2640   -0.9850 o         1 MOL     -0.672549
    109 O18        -0.2300   -3.2620    0.7100 o         1 MOL     -0.672549
    110 H47        -2.6100    1.6440    1.7910 hn        1 MOL      0.241553
    111 H48        -1.2440    0.2770   -0.4250 h1        1 MOL      0.003484
    112 H49        -1.8860   -1.2570    2.0400 hc        1 MOL      0.038943
    113 H50        -0.3120   -0.5170    1.6690 hc        1 MOL      0.038943
    114 N11        -4.0830    0.9340   -0.2600 n         1 MOL     -0.490392
    115 C36        -5.4810    0.7830   -0.5840 c3        1 MOL      0.299901
    116 C37        -6.1130   -0.1530    0.4590 c         1 MOL      0.222821
    117 O19        -6.1010    0.1840    1.6740 o         1 MOL     -0.526729
    118 C38        -6.1710    2.2140   -0.6780 c3        1 MOL     -0.332632
    119 C39        -7.6340    2.1090   -1.0170 ca        1 MOL      0.100936
    120 C40        -8.0560    2.2270   -2.3540 ca        1 MOL     -0.125222
    121 C41        -8.5680    1.8320   -0.0050 ca        1 MOL     -0.125222
    122 C42        -9.4690    2.1710   -2.6170 ca        1 MOL     -0.149508
    123 C43        -9.9460    1.6720   -0.2650 ca        1 MOL     -0.149508
    124 C44       -10.3840    1.8930   -1.5770 ca        1 MOL     -0.097952
    125 H51        -3.6300    1.8350   -0.2920 hn        1 MOL      0.278170
    126 H52        -5.5010    0.2980   -1.5540 h1        1 MOL     -0.003320
    127 H53        -5.6660    2.6740   -1.5290 hc        1 MOL      0.133274
    128 H54        -6.0180    2.8050    0.2200 hc        1 MOL      0.133274
    129 H55        -7.4720    2.3300   -3.2620 ha        1 MOL      0.110552
    130 H56        -8.0700    1.6090    0.9300 ha        1 MOL      0.110552
    131 H57        -9.8810    2.2500   -3.6080 ha        1 MOL      0.116746
    132 H58       -10.6010    1.2620    0.4980 ha        1 MOL      0.116746
    133 H59       -11.4500    1.8780   -1.7500 ha        1 MOL      0.094617
    134 N12        -6.8060   -1.2270    0.0430 n         1 MOL      0.175678
    135 C45        -7.6180   -2.0370    0.9470 c3        1 MOL     -0.005168
    136 C46        -6.7760   -2.8090    1.9810 c         1 MOL      0.321884
    137 O20        -7.2100   -3.0850    3.1110 o         1 MOL     -0.532277
    138 C47        -8.5570   -2.8990    0.0940 c3        1 MOL     -0.107801
    139 C48        -7.7720   -2.9970   -1.2580 c3        1 MOL     -0.097170
    140 C49        -6.8540   -1.7220   -1.3160 c3        1 MOL     -0.061032
    141 H60        -8.2130   -1.2900    1.4660 h1        1 MOL      0.063493
    142 H61        -8.7870   -3.8790    0.5220 hc        1 MOL      0.057382
    143 H62        -9.4130   -2.2550   -0.1200 hc        1 MOL      0.057382
    144 H63        -7.0820   -3.8310   -1.1210 hc        1 MOL      0.045038
    145 H64        -8.4050   -3.0580   -2.1460 hc        1 MOL      0.045038
    146 H65        -5.8300   -1.9450   -1.6450 h1        1 MOL      0.026451
    147 H66        -7.2960   -0.9780   -1.9750 h1        1 MOL      0.026451
    148 N13        -5.5310   -3.1430    1.7150 n         1 MOL     -0.091138
    149 C50        -4.7260   -4.0710    2.6060 c3        1 MOL     -0.339572
    150 C51        -4.4500   -3.4650    4.0250 c         1 MOL      0.528344
    151 O21        -4.3160   -4.2710    4.9580 o         1 MOL     -0.546951
    152 C52        -3.3840   -4.3930    1.8780 c3        1 MOL      0.159031
    153 C53        -3.7100   -5.3900    0.7720 c3        1 MOL     -0.032297
    154 C54        -2.4670   -5.8750    0.0700 c         1 MOL      0.774384
    155 O22        -1.9810   -6.9980    0.3360 o         1 MOL     -0.776190
    156 O23        -2.0240   -5.1140   -0.8230 o         1 MOL     -0.776190
    157 H67        -5.0780   -2.8410    0.8710 hn        1 MOL      0.236803
    158 H68        -5.2390   -5.0170    2.7290 h1        1 MOL      0.179115
    159 H69        -2.5990   -4.7010    2.5770 hc        1 MOL     -0.001524
    160 H70        -2.9560   -3.5190    1.3740 hc        1 MOL     -0.001524
    161 H71        -4.3210   -4.9290   -0.0190 hc        1 MOL     -0.034485
    162 H72        -4.2430   -6.2590    1.1770 hc        1 MOL     -0.034485
    163 N14        -4.6240   -2.1330    4.1570 n         1 MOL     -0.158429
    164 C55        -4.4320   -1.3280    5.4220 c3        1 MOL     -0.400991
    165 H73        -4.7450   -0.2990    5.2490 h1        1 MOL      0.144658
    166 H74        -5.0320   -1.7600    6.2230 h1        1 MOL      0.144658
    167 H75        -3.3800   -1.3440    5.7070 h1        1 MOL      0.144658
    168 H76        -4.6310   -1.6850    3.2520 hn        1 MOL      0.206087
    169 Ca1         0.3780   -4.4670   -1.6480 Ca        1 MOL      1.777196
    170 O24         1.0040   -2.5640   -3.6590 oh        1 MOL     -0.844332
    171 O25        -1.0000   -4.9850   -3.9460 oh        1 MOL     -0.844332
    172 H77         0.8310   -2.1660   -4.5120 ho        1 MOL      0.409240
    173 H78        -0.9730   -5.3540   -4.8290 ho        1 MOL      0.409240
    174 H79         1.7700   -2.0870   -3.3230 ho        1 MOL      0.409240
    175 H80        -1.8830   -4.6320   -3.8680 ho        1 MOL      0.409240
    176 O26         1.4410   -6.6700   -2.7700 oh        1 MOL     -0.844332
    177 H81         1.1830   -7.2290   -3.5080 ho        1 MOL      0.409240
    178 H82         2.3920   -6.7290   -2.7420 ho        1 MOL      0.409240
    179 O27         0.6420   -6.5640    0.0360 oh        1 MOL     -0.844332
    180 H83         1.1510   -7.3770    0.0940 ho        1 MOL      0.409240
    181 H84        -0.2710   -6.8480    0.0830 ho        1 MOL      0.409240
@<TRIPOS>BOND
     1    1    2 1   
     2    1    4 1   
     3    1    5 1   
     4    1    6 1   
     5    2    3 2   
     6    2    7 1   
     7    7    8 1   
     8    7   15 1   
     9    8    9 1   
    10    8   11 1   
    11    8   16 1   
    12    9   10 2   
    13    9   19 1   
    14   11   12 1   
    15   11   17 1   
    16   11   18 1   
    17   12   13 1   
    18   12   14 1   
    19   19   20 1   
    20   19   24 1   
    21   20   21 1   
    22   20   23 1   
    23   20   25 1   
    24   21   22 2   
    25   21   29 1   
    26   23   26 1   
    27   23   27 1   
    28   23   28 1   
    29   29   30 1   
    30   29   37 1   
    31   30   31 1   
    32   30   33 1   
    33   30   38 1   
    34   31   32 2   
    35   31   41 1   
    36   33   34 1   
    37   33   39 1   
    38   33   40 1   
    39   34   35 1   
    40   34   36 1   
    41   41   42 1   
    42   41   45 1   
    43   42   43 1   
    44   42   46 1   
    45   42   47 1   
    46   43   44 2   
    47   43   48 1   
    48   48   49 1   
    49   48   56 1   
    50   49   50 1   
    51   49   52 1   
    52   49   57 1   
    53   50   51 2   
    54   50   62 1   
    55   52   53 1   
    56   52   58 1   
    57   52   59 1   
    58   53   54 1   
    59   53   55 2   
    60   54   60 1   
    61   54   61 1   
    62   62   63 1   
    63   62   66 1   
    64   63   64 1   
    65   63   67 1   
    66   63   68 1   
    67   64   65 2   
    68   64   69 1   
    69   69   70 1   
    70   69   76 1   
    71   70   71 1   
    72   70   73 1   
    73   70   77 1   
    74   71   72 2   
    75   71   83 1   
    76   73   74 1   
    77   73   75 1   
    78   73   78 1   
    79   74   80 1   
    80   74   81 1   
    81   74   82 1   
    82   75   79 1   
    83   83   84 1   
    84   83   91 1   
    85   84   85 1   
    86   84   87 1   
    87   84   92 1   
    88   85   86 2   
    89   85  102 1   
    90   87   88 1   
    91   87   89 1   
    92   87   93 1   
    93   88   90 1   
    94   88   94 1   
    95   88   95 1   
    96   89   96 1   
    97   89   97 1   
    98   89   98 1   
    99   90   99 1   
   100   90  100 1   
   101   90  101 1   
   102  102  103 1   
   103  102  110 1   
   104  103  104 1   
   105  103  106 1   
   106  103  111 1   
   107  104  105 2   
   108  104  114 1   
   109  106  107 1   
   110  106  112 1   
   111  106  113 1   
   112  107  108 1   
   113  107  109 1   
   114  114  115 1   
   115  114  125 1   
   116  115  116 1   
   117  115  118 1   
   118  115  126 1   
   119  116  117 2   
   120  116  134 1   
   121  118  119 1   
   122  118  127 1   
   123  118  128 1   
   124  119  120 ar  
   125  119  121 ar  
   126  120  122 ar  
   127  120  129 1   
   128  121  123 ar  
   129  121  130 1   
   130  122  124 ar  
   131  122  131 1   
   132  123  124 ar  
   133  123  132 1   
   134  124  133 1   
   135  134  135 1   
   136  134  140 1   
   137  135  136 1   
   138  135  138 1   
   139  135  141 1   
   140  136  137 2   
   141  136  148 1   
   142  138  139 1   
   143  138  142 1   
   144  138  143 1   
   145  139  140 1   
   146  139  144 1   
   147  139  145 1   
   148  140  146 1   
   149  140  147 1   
   150  148  149 1   
   151  148  157 1   
   152  149  150 1   
   153  149  152 1   
   154  149  158 1   
   155  150  151 2   
   156  150  163 1   
   157  152  153 1   
   158  152  159 1   
   159  152  160 1   
   160  153  154 1   
   161  153  161 1   
   162  153  162 1   
   163  154  155 1   
   164  154  156 1   
   165  163  164 1   
   166  163  168 1   
   167  164  165 1   
   168  164  166 1   
   169  164  167 1   
   170  170  172 1   
   171  170  174 1   
   172  171  173 1   
   173  171  175 1   
   174  176  177 1   
   175  176  178 1   
   176  179  180 1   
   177  179  181 1   
@<TRIPOS>SUBSTRUCTURE
     1 MOL         1 TEMP              0 ****  ****    0 ROOT
