@<TRIPOS>MOLECULE
MOL
  182   178     1     0     0
SMALL
resp


@<TRIPOS>ATOM
      1 C1          0.4030   -4.0550    6.0210 c3        1 MOL     -0.432389
      2 C2          0.6170   -3.8590    4.5390 c         1 MOL      0.754286
      3 O1         -0.3450   -3.9620    3.7720 o         1 MOL     -0.583621
      4 H1          0.4620   -3.0920    6.5260 hc        1 MOL      0.119923
      5 H2         -0.5790   -4.4950    6.1910 hc        1 MOL      0.119923
      6 H3          1.1720   -4.7190    6.4150 hc        1 MOL      0.119923
      7 N1          1.8510   -3.6720    4.1560 n         1 MOL     -0.544740
      8 C3          2.1200   -3.2740    2.7000 c3        1 MOL     -0.028786
      9 C4          2.4460   -4.5330    1.8990 c         1 MOL      0.540881
     10 O2          2.7450   -5.5880    2.5460 o         1 MOL     -0.544011
     11 C5          3.2040   -2.1740    2.6650 c3        1 MOL     -0.224896
     12 C6          3.2670   -1.3160    1.3970 c         1 MOL      0.405657
     13 O3          3.9240   -0.2310    1.4270 o         1 MOL     -0.653599
     14 O4          2.8180   -1.7560    0.3160 o         1 MOL     -0.653599
     15 H4          2.5610   -3.4270    4.8330 hn        1 MOL      0.322373
     16 H5          1.2330   -2.7980    2.2850 h1        1 MOL      0.117503
     17 H6          4.2250   -2.4810    2.9090 hc        1 MOL      0.130210
     18 H7          2.9650   -1.5400    3.5200 hc        1 MOL      0.130210
     19 N2          2.4600   -4.5350    0.6140 n         1 MOL     -0.294007
     20 C7          2.9970   -5.6590   -0.1320 c3        1 MOL     -0.208065
     21 C8          4.2580   -5.3660   -0.9080 c         1 MOL      0.675260
     22 O5          5.0120   -6.2640   -1.2210 o         1 MOL     -0.569377
     23 C9          1.8810   -6.3040   -1.0960 c3        1 MOL      0.045073
     24 C10         1.3720   -5.5320   -2.2580 c3        1 MOL     -0.132946
     25 C11         0.0280   -6.0210   -2.7660 c3        1 MOL     -0.130170
     26 C12        -0.0710   -7.5400   -3.1020 c3        1 MOL      0.064625
     27 N3         -1.4260   -7.9010   -3.5120 n4        1 MOL     -0.175404
     28 H8          2.3500   -3.6490    0.1330 hn        1 MOL      0.273466
     29 H9          3.2570   -6.4960    0.5210 h1        1 MOL      0.136802
     30 H10         0.9820   -6.4030   -0.4840 hc        1 MOL      0.025654
     31 H11         2.1450   -7.3020   -1.4370 hc        1 MOL      0.025654
     32 H12         2.1070   -5.6560   -3.0550 hc        1 MOL      0.070765
     33 H13         1.1930   -4.4930   -1.9610 hc        1 MOL      0.070765
     34 H14        -0.2390   -5.3650   -3.5890 hc        1 MOL      0.070331
     35 H15        -0.8050   -5.8370   -2.0740 hc        1 MOL      0.070331
     36 H16         0.2320   -7.9880   -2.1560 hx        1 MOL      0.061371
     37 H17         0.6100   -7.8710   -3.8950 hx        1 MOL      0.061371
     38 H18        -1.6400   -7.4610   -4.3890 hn        1 MOL      0.222089
     39 H19        -1.3370   -8.8760   -3.7740 hn        1 MOL      0.222089
     40 H20        -2.1750   -7.7040   -2.8680 hn        1 MOL      0.222089
     41 N4          4.5330   -4.1110   -1.0320 n         1 MOL     -0.419083
     42 C13         5.7430   -3.6340   -1.8380 c3        1 MOL      0.023246
     43 C14         6.8110   -3.1990   -0.8980 c         1 MOL      0.603289
     44 O6          7.9310   -3.6390   -0.9870 o         1 MOL     -0.561894
     45 C15         5.4170   -2.5640   -2.9180 c3        1 MOL     -0.072314
     46 C16         4.5580   -1.4590   -2.4030 c         1 MOL      0.616889
     47 O7          3.3580   -1.4450   -2.7200 o         1 MOL     -0.686400
     48 O8          5.0790   -0.6280   -1.5580 o         1 MOL     -0.686400
     49 H21         3.9530   -3.3720   -0.6730 hn        1 MOL      0.212098
     50 H22         6.2000   -4.5060   -2.3070 h1        1 MOL      0.073603
     51 H23         4.8810   -3.0220   -3.7480 hc        1 MOL      0.018813
     52 H24         6.3670   -2.1350   -3.2240 hc        1 MOL      0.018813
     53 N5          6.6080   -2.3490    0.1010 n         1 MOL     -0.479455
     54 C17         7.7010   -1.7800    0.9720 c3        1 MOL      0.072749
     55 C18         8.0230   -0.2920    0.8560 c         1 MOL      0.500870
     56 O9          9.0100    0.1340    1.4180 o         1 MOL     -0.559115
     57 H25         5.6740   -2.0120    0.2420 hn        1 MOL      0.313735
     58 H26         8.6320   -2.2530    0.6520 h1        1 MOL      0.061249
     59 H27         7.6010   -1.9750    2.0430 h1        1 MOL      0.061249
     60 N6          7.2030    0.4480    0.0740 n         1 MOL     -0.250408
     61 C19         7.3430    1.8110   -0.3810 c3        1 MOL      0.105141
     62 C20         6.0730    2.6350   -0.3280 c         1 MOL      0.552696
     63 O10         4.9180    2.1160   -0.3610 o         1 MOL     -0.570206
     64 C21         7.9900    1.7600   -1.8080 c3        1 MOL     -0.361801
     65 C22         6.9900    1.6940   -2.9410 c         1 MOL      0.658841
     66 N7          6.9840    0.6220   -3.6420 n         1 MOL     -0.716919
     67 O11         6.2490    2.5610   -3.3250 o         1 MOL     -0.600295
     68 H28         6.5130   -0.0210   -0.5040 hn        1 MOL      0.171708
     69 H29         8.0390    2.3910    0.2200 h1        1 MOL      0.050327
     70 H30         8.6710    0.9080   -1.8430 hc        1 MOL      0.127678
     71 H31         8.6410    2.6100   -2.0020 hc        1 MOL      0.127678
     72 H32         7.6290   -0.1080   -3.3520 hn        1 MOL      0.359306
     73 H33         6.3870    0.4930   -4.4560 hn        1 MOL      0.359306
     74 N8          6.2760    3.9460   -0.4050 n         1 MOL     -0.512880
     75 C23         5.1410    4.9320   -0.6100 c3        1 MOL      0.074834
     76 C24         4.0950    5.0220    0.5010 c         1 MOL      0.482204
     77 O12         4.4010    4.8820    1.7380 o         1 MOL     -0.489820
     78 H34         7.2420    4.2340   -0.4450 hn        1 MOL      0.341846
     79 H35         4.5740    4.7650   -1.5170 h1        1 MOL      0.054491
     80 H36         5.5620    5.9250   -0.7590 h1        1 MOL      0.054491
     81 N9          2.8030    5.1460    0.1860 n         1 MOL     -0.458306
     82 C25         1.6780    4.8390    1.1060 c3        1 MOL      0.138680
     83 C26         1.5430    3.3200    1.4870 c         1 MOL      0.475845
     84 O13         2.3480    2.5080    1.0480 o         1 MOL     -0.367547
     85 C27         0.3900    5.4970    0.4440 c3        1 MOL     -0.075832
     86 C28         0.4260    6.9260   -0.0220 ca        1 MOL      0.226776
     87 C29        -0.1680    7.2570   -1.3020 ca        1 MOL     -0.333174
     88 C30         0.7720    7.9470    0.8460 ca        1 MOL     -0.333174
     89 C31        -0.3960    8.5970   -1.6210 ca        1 MOL     -0.139254
     90 C32         0.5550    9.2790    0.5150 ca        1 MOL     -0.139254
     91 C33         0.0580    9.6230   -0.7530 ca        1 MOL      0.252614
     92 O14        -0.0140   10.8770   -1.0560 oh        1 MOL     -0.430917
     93 H37         2.5040    5.2810   -0.7740 hn        1 MOL      0.214284
     94 H38         1.8750    5.3260    2.0610 h1        1 MOL      0.064597
     95 H39        -0.3740    5.4310    1.2190 hc        1 MOL     -0.000691
     96 H40        -0.0120    4.9390   -0.4020 hc        1 MOL     -0.000691
     97 H41        -0.5570    6.4400   -1.8890 ha        1 MOL      0.176571
     98 H42         1.1310    7.7380    1.8450 ha        1 MOL      0.176571
     99 H43        -0.8620    8.7980   -2.5760 ha        1 MOL      0.133106
    100 H44         0.8530   10.0170    1.2410 ha        1 MOL      0.133106
    101 H45        -0.2120   11.0470   -1.9830 ho        1 MOL      0.365693
    102 N10         0.4730    3.0270    2.2650 n         1 MOL     -0.629191
    103 C34         0.0100    1.6330    2.6570 c3        1 MOL     -0.100477
    104 C35        -0.2510    0.6520    1.5210 c         1 MOL      0.668273
    105 O15         0.6340    0.1530    0.8460 o         1 MOL     -0.339083
    106 C36         0.8590    1.0460    3.8040 c3        1 MOL      0.443171
    107 C37         0.2520   -0.3260    4.2730 c3        1 MOL     -0.359152
    108 C38         0.9870    1.9290    5.0060 c3        1 MOL     -0.236846
    109 C39        -1.0680   -0.2850    5.0860 c3        1 MOL     -0.065415
    110 H46         0.0110    3.8230    2.6740 hn        1 MOL      0.344160
    111 H47        -0.9720    1.8820    3.0690 h1        1 MOL      0.065576
    112 H48         1.8560    0.8810    3.3890 hc        1 MOL     -0.046743
    113 H49         1.0220   -0.8470    4.8420 hc        1 MOL      0.062387
    114 H50         0.1120   -0.9170    3.3660 hc        1 MOL      0.062387
    115 H51         1.5480    2.8490    4.8180 hc        1 MOL      0.060064
    116 H52         0.0200    2.1710    5.4430 hc        1 MOL      0.060064
    117 H53         1.6050    1.3340    5.6860 hc        1 MOL      0.060064
    118 H54        -1.9140   -0.0580    4.4350 hc        1 MOL      0.033281
    119 H55        -1.3670   -1.2130    5.5660 hc        1 MOL      0.033281
    120 H56        -0.9920    0.4090    5.9220 hc        1 MOL      0.033281
    121 N11        -1.4640    0.1560    1.3660 n         1 MOL     -0.638938
    122 C40        -1.7910   -0.9580    0.4500 c3        1 MOL      0.045996
    123 C41        -3.2460   -1.0230   -0.0880 c         1 MOL      0.639679
    124 O16        -3.5970   -1.7060   -1.0530 o         1 MOL     -0.588673
    125 C42        -1.5650   -2.3970    0.9860 c3        1 MOL      0.425300
    126 O17        -2.1720   -2.6450    2.2680 oh        1 MOL     -0.678961
    127 H57        -2.0990    0.3770    2.1110 hn        1 MOL      0.329111
    128 H58        -1.1540   -1.0020   -0.4370 h1        1 MOL      0.013876
    129 H59        -0.5200   -2.7220    0.9680 h1        1 MOL     -0.049730
    130 H60        -1.9970   -3.0810    0.2570 h1        1 MOL     -0.049730
    131 H61        -1.5490   -2.9430    2.9280 ho        1 MOL      0.411582
    132 N12        -4.1640   -0.2510    0.5110 n         1 MOL     -0.596155
    133 C43        -5.5710   -0.1430    0.1300 c3        1 MOL      0.204309
    134 C44        -5.6960    0.5530   -1.2230 c         1 MOL      0.634789
    135 O18        -4.8320    1.3220   -1.6420 o         1 MOL     -0.596958
    136 C45        -6.3860    0.5320    1.2130 c3        1 MOL     -0.324756
    137 H62        -3.8000    0.3290    1.2550 hn        1 MOL      0.291894
    138 H63        -5.9700   -1.1590    0.0610 h1        1 MOL      0.088748
    139 H64        -7.4230    0.7170    0.9450 hc        1 MOL      0.101203
    140 H65        -6.3670   -0.1610    2.0600 hc        1 MOL      0.101203
    141 H66        -5.8800    1.4530    1.4990 hc        1 MOL      0.101203
    142 N13        -6.7590    0.4800   -1.9910 n         1 MOL     -0.588870
    143 C46        -7.8810   -0.4110   -1.8910 c3        1 MOL      0.398637
    144 C47        -9.1180    0.2430   -2.6000 c         1 MOL      0.389273
    145 O19        -8.9280    0.8810   -3.6110 o         1 MOL     -0.538785
    146 C48        -7.4940   -1.7290   -2.5460 c3        1 MOL     -0.448577
    147 H67        -6.7940    1.1200   -2.7660 hn        1 MOL      0.309298
    148 H68        -8.1180   -0.6170   -0.8400 h1        1 MOL     -0.061507
    149 H69        -7.2540   -1.4110   -3.5610 hc        1 MOL      0.123471
    150 H70        -6.6090   -2.0780   -2.0240 hc        1 MOL      0.123471
    151 H71        -8.3440   -2.4130   -2.4990 hc        1 MOL      0.123471
    152 N14       -10.3220    0.1120   -2.1130 n         1 MOL     -0.281766
    153 C49       -10.6810   -0.1960   -0.7330 c3        1 MOL     -0.247000
    154 C50       -10.1770    0.8210    0.3410 c         1 MOL      0.547624
    155 O20        -9.9010    0.2950    1.4100 o         1 MOL     -0.538659
    156 C51       -12.1760   -0.4420   -0.7390 c3        1 MOL      0.022309
    157 C52       -12.8360   -1.0690    0.5370 c3        1 MOL     -0.153154
    158 C53       -14.1940   -1.5740    0.1790 c         1 MOL      0.689550
    159 O21       -15.1980   -1.0190    0.6450 o         1 MOL     -0.653131
    160 O22       -14.2840   -2.6700   -0.4660 o         1 MOL     -0.653131
    161 H72       -11.0570    0.4250   -2.7330 hn        1 MOL      0.263152
    162 H73       -10.2170   -1.1720   -0.5500 h1        1 MOL      0.158066
    163 H74       -12.4570   -0.9830   -1.6410 hc        1 MOL      0.016074
    164 H75       -12.6070    0.5580   -0.7430 hc        1 MOL      0.016074
    165 H76       -12.9160   -0.3700    1.3760 hc        1 MOL      0.046722
    166 H77       -12.2080   -1.9320    0.7600 hc        1 MOL      0.046722
    167 N15        -9.9310    2.0500   -0.0400 n         1 MOL     -0.296504
    168 C54        -9.1780    2.9850    0.7790 c3        1 MOL     -0.055276
    169 H78        -9.1290    2.6120    1.8020 h1        1 MOL      0.060154
    170 H79        -8.1680    3.0860    0.3820 h1        1 MOL      0.060154
    171 H80        -9.6720    3.9560    0.7710 h1        1 MOL      0.060154
    172 H81       -10.2010    2.3040   -0.9810 hn        1 MOL      0.260390
    173 Ca1         2.7310    0.6160   -0.9010 Ca        1 MOL      1.721959
    174 O23         3.5830    1.9180   -3.1090 oh        1 MOL     -0.889492
    175 H82         4.5270    1.9240   -3.2790 ho        1 MOL      0.436976
    176 H83         3.2100    2.3610   -3.8730 ho        1 MOL      0.436976
    177 O24         0.6860   -0.3280   -2.3740 oh        1 MOL     -0.889492
    178 H84         0.7420   -1.1240   -2.9080 ho        1 MOL      0.436976
    179 H85        -0.1160    0.1070   -2.6680 ho        1 MOL      0.436976
    180 O25         0.9750    2.6070   -1.4600 oh        1 MOL     -0.889492
    181 H86         1.4560    3.4110   -1.6850 ho        1 MOL      0.436976
    182 H87         0.0580    2.8210   -1.6330 ho        1 MOL      0.436976
@<TRIPOS>BOND
     1    1    2 1   
     2    1    4 1   
     3    1    5 1   
     4    1    6 1   
     5    2    3 2   
     6    2    7 1   
     7    7    8 1   
     8    7   15 1   
     9    8    9 1   
    10    8   11 1   
    11    8   16 1   
    12    9   10 2   
    13    9   19 1   
    14   11   12 1   
    15   11   17 1   
    16   11   18 1   
    17   12   13 1   
    18   12   14 1   
    19   19   20 1   
    20   19   28 1   
    21   20   21 1   
    22   20   23 1   
    23   20   29 1   
    24   21   22 2   
    25   21   41 1   
    26   23   24 1   
    27   23   30 1   
    28   23   31 1   
    29   24   25 1   
    30   24   32 1   
    31   24   33 1   
    32   25   26 1   
    33   25   34 1   
    34   25   35 1   
    35   26   27 1   
    36   26   36 1   
    37   26   37 1   
    38   27   38 1   
    39   27   39 1   
    40   27   40 1   
    41   41   42 1   
    42   41   49 1   
    43   42   43 1   
    44   42   45 1   
    45   42   50 1   
    46   43   44 2   
    47   43   53 1   
    48   45   46 1   
    49   45   51 1   
    50   45   52 1   
    51   46   47 1   
    52   46   48 1   
    53   53   54 1   
    54   53   57 1   
    55   54   55 1   
    56   54   58 1   
    57   54   59 1   
    58   55   56 2   
    59   55   60 1   
    60   60   61 1   
    61   60   68 1   
    62   61   62 1   
    63   61   64 1   
    64   61   69 1   
    65   62   63 2   
    66   62   74 1   
    67   64   65 1   
    68   64   70 1   
    69   64   71 1   
    70   65   66 1   
    71   65   67 2   
    72   66   72 1   
    73   66   73 1   
    74   74   75 1   
    75   74   78 1   
    76   75   76 1   
    77   75   79 1   
    78   75   80 1   
    79   76   77 2   
    80   76   81 1   
    81   81   82 1   
    82   81   93 1   
    83   82   83 1   
    84   82   85 1   
    85   82   94 1   
    86   83   84 2   
    87   83  102 1   
    88   85   86 1   
    89   85   95 1   
    90   85   96 1   
    91   86   87 ar  
    92   86   88 ar  
    93   87   89 ar  
    94   87   97 1   
    95   88   90 ar  
    96   88   98 1   
    97   89   91 ar  
    98   89   99 1   
    99   90   91 ar  
   100   90  100 1   
   101   91   92 1   
   102   92  101 1   
   103  102  103 1   
   104  102  110 1   
   105  103  104 1   
   106  103  106 1   
   107  103  111 1   
   108  104  105 2   
   109  104  121 1   
   110  106  107 1   
   111  106  108 1   
   112  106  112 1   
   113  107  109 1   
   114  107  113 1   
   115  107  114 1   
   116  108  115 1   
   117  108  116 1   
   118  108  117 1   
   119  109  118 1   
   120  109  119 1   
   121  109  120 1   
   122  121  122 1   
   123  121  127 1   
   124  122  123 1   
   125  122  125 1   
   126  122  128 1   
   127  123  124 2   
   128  123  132 1   
   129  125  126 1   
   130  125  129 1   
   131  125  130 1   
   132  126  131 1   
   133  132  133 1   
   134  132  137 1   
   135  133  134 1   
   136  133  136 1   
   137  133  138 1   
   138  134  135 2   
   139  134  142 1   
   140  136  139 1   
   141  136  140 1   
   142  136  141 1   
   143  142  143 1   
   144  142  147 1   
   145  143  144 1   
   146  143  146 1   
   147  143  148 1   
   148  144  145 2   
   149  144  152 1   
   150  146  149 1   
   151  146  150 1   
   152  146  151 1   
   153  152  153 1   
   154  152  161 1   
   155  153  154 1   
   156  153  156 1   
   157  153  162 1   
   158  154  155 2   
   159  154  167 1   
   160  156  157 1   
   161  156  163 1   
   162  156  164 1   
   163  157  158 1   
   164  157  165 1   
   165  157  166 1   
   166  158  159 1   
   167  158  160 1   
   168  167  168 1   
   169  167  172 1   
   170  168  169 1   
   171  168  170 1   
   172  168  171 1   
   173  174  175 1   
   174  174  176 1   
   175  177  178 1   
   176  177  179 1   
   177  180  181 1   
   178  180  182 1   
@<TRIPOS>SUBSTRUCTURE
     1 MOL         1 TEMP              0 ****  ****    0 ROOT
