@<TRIPOS>MOLECULE
MOL
  192   187     1     0     0
SMALL
resp


@<TRIPOS>ATOM
      1 C1          9.4690    0.2290    2.4700 c3        1 MOL     -0.616060
      2 C2          8.3530    0.0860    1.4110 c         1 MOL      0.805265
      3 O1          7.1950   -0.2180    1.6990 o         1 MOL     -0.698091
      4 H1          9.1180    0.8630    3.2830 hc        1 MOL      0.156766
      5 H2          9.7260   -0.7550    2.8620 hc        1 MOL      0.156766
      6 H3         10.3490    0.6800    2.0120 hc        1 MOL      0.156766
      7 N1          8.6390    0.1780    0.1090 n         1 MOL     -0.497184
      8 C3          7.6350    0.3100   -0.9510 c3        1 MOL     -0.008060
      9 C4          7.0830   -0.9790   -1.4610 c         1 MOL      0.431848
     10 O2          7.0730   -1.3590   -2.6310 o         1 MOL     -0.466613
     11 C5          8.1010    1.3100   -2.0410 c3        1 MOL     -0.234057
     12 C6          9.4860    0.9800   -2.6860 c         1 MOL      0.692909
     13 O3         10.2050    0.1040   -2.1990 o         1 MOL     -0.635966
     14 O4          9.9180    1.7610   -3.6010 o         1 MOL     -0.635966
     15 H4          9.6140    0.1960   -0.1710 hn        1 MOL      0.271500
     16 H5          6.8040    0.7740   -0.4260 h1        1 MOL      0.095098
     17 H6          8.1330    2.3320   -1.6920 hc        1 MOL      0.091860
     18 H7          7.3320    1.3570   -2.8090 hc        1 MOL      0.091860
     19 N2          6.7860   -1.9340   -0.5900 n         1 MOL     -0.258479
     20 C7          6.3820   -3.4170   -0.7220 c3        1 MOL      0.037578
     21 C8          4.9410   -3.6670   -1.2650 c         1 MOL      0.569549
     22 O5          4.8100   -4.4670   -2.1700 o         1 MOL     -0.575360
     23 C9          6.6400   -4.1990    0.5550 c3        1 MOL     -0.169100
     24 C10         8.1280   -4.0510    1.0150 c3        1 MOL     -0.023048
     25 C11         8.2580   -4.8810    2.3510 c3        1 MOL     -0.194088
     26 C12         9.6890   -4.9010    2.8810 c3        1 MOL      0.086459
     27 N3          9.6790   -5.6610    4.1930 n4        1 MOL     -0.359584
     28 H8          6.9670   -1.6710    0.3600 hn        1 MOL      0.230939
     29 H9          6.9290   -3.8790   -1.5460 h1        1 MOL      0.078128
     30 H10         6.4870   -5.2440    0.3110 hc        1 MOL      0.069829
     31 H11         5.8520   -3.9640    1.2710 hc        1 MOL      0.069829
     32 H12         8.5690   -3.0560    1.1180 hc        1 MOL      0.055274
     33 H13         8.7440   -4.5580    0.2740 hc        1 MOL      0.055274
     34 H14         8.0210   -5.8900    2.0360 hc        1 MOL      0.081927
     35 H15         7.5500   -4.5260    3.1020 hc        1 MOL      0.081927
     36 H16        10.2170   -3.9430    2.8610 hx        1 MOL      0.086731
     37 H17        10.1850   -5.5990    2.2060 hx        1 MOL      0.086731
     38 H18         9.2630   -6.5710    4.0520 hn        1 MOL      0.319375
     39 H19        10.5500   -5.6820    4.7040 hn        1 MOL      0.319375
     40 H20         9.1190   -5.1880    4.8870 hn        1 MOL      0.319375
     41 N4          3.9610   -2.9420   -0.8830 n         1 MOL     -0.430293
     42 C13         3.8610   -2.0250    0.2130 c3        1 MOL     -0.047586
     43 C14         3.6450   -0.5390   -0.2380 c         1 MOL      0.091610
     44 O6          3.7080   -0.2570   -1.4760 o         1 MOL     -0.284749
     45 C15         2.6470   -2.5430    1.0380 c3        1 MOL     -0.116119
     46 C16         1.3450   -2.8140    0.2300 c         1 MOL      0.639615
     47 O7          1.1300   -2.6290   -1.0020 o         1 MOL     -0.669009
     48 O8          0.4220   -3.3250    0.9410 o         1 MOL     -0.669009
     49 H21         3.1530   -2.9700   -1.4990 hn        1 MOL      0.358442
     50 H22         4.7260   -2.0110    0.8850 h1        1 MOL      0.106686
     51 H23         2.4070   -1.7750    1.7720 hc        1 MOL      0.042232
     52 H24         2.8790   -3.3660    1.7070 hc        1 MOL      0.042232
     53 N5          3.6350    0.4250    0.7010 n         1 MOL     -0.070776
     54 C17         3.6710    1.8530    0.2890 c3        1 MOL     -0.324968
     55 C18         2.4450    2.5100   -0.3380 c         1 MOL      0.653052
     56 O9          1.3790    1.9100   -0.6060 o         1 MOL     -0.515384
     57 H25         3.8180    0.1940    1.6740 hn        1 MOL      0.247614
     58 H26         4.4270    1.9940   -0.4850 h1        1 MOL      0.132787
     59 H27         3.8740    2.4870    1.1500 h1        1 MOL      0.132787
     60 N6          2.6560    3.8150   -0.5910 n         1 MOL     -0.509032
     61 C19         1.6510    4.8010   -1.1370 c3        1 MOL      0.327227
     62 C20         1.8490    6.2470   -0.7690 c         1 MOL      0.538766
     63 O10         2.9060    6.6720   -0.3550 o         1 MOL     -0.548589
     64 C21         1.4840    4.6950   -2.6710 c3        1 MOL     -0.262892
     65 C22         1.1970    3.3170   -3.2440 c         1 MOL      0.642713
     66 O11         2.0510    2.6490   -3.8290 o         1 MOL     -0.630025
     67 O12         0.0720    2.7910   -3.0380 o         1 MOL     -0.630025
     68 H28         3.5980    4.1600   -0.5140 hn        1 MOL      0.278284
     69 H29         0.7070    4.4500   -0.7280 h1        1 MOL     -0.087126
     70 H30         2.3900    5.0900   -3.1230 hc        1 MOL      0.049560
     71 H31         0.6250    5.2890   -2.9810 hc        1 MOL      0.049560
     72 N7          0.8650    7.1510   -0.7770 n         1 MOL     -0.556666
     73 C23        -0.5420    6.9570   -0.8450 c3        1 MOL      0.173719
     74 C24        -1.1150    6.2660    0.4560 c         1 MOL      0.413451
     75 O13        -0.3820    6.2700    1.5110 o         1 MOL     -0.482294
     76 H32         1.1410    8.0580   -0.4240 hn        1 MOL      0.331382
     77 H33        -0.7330    6.3770   -1.7490 h1        1 MOL      0.023113
     78 H34        -1.0960    7.8690   -1.0500 h1        1 MOL      0.023113
     79 N8         -2.2300    5.5270    0.3690 n         1 MOL     -0.500366
     80 C25        -2.8210    4.7190    1.4190 c3        1 MOL      0.002932
     81 C26        -2.0110    3.4440    1.4830 c         1 MOL      0.868576
     82 O14        -1.3800    3.0100    0.4930 o         1 MOL     -0.660396
     83 C27        -4.2730    4.4280    1.0850 c3        1 MOL      0.291179
     84 C28        -5.0600    4.0120    2.3080 c3        1 MOL     -0.292126
     85 O15        -4.5530    3.5320    0.0100 oh        1 MOL     -0.565665
     86 H35        -2.7650    5.7260   -0.4570 hn        1 MOL      0.267942
     87 H36        -2.7970    5.2820    2.3510 h1        1 MOL      0.087066
     88 H37        -4.8370    5.3080    0.7970 h1        1 MOL      0.022277
     89 H38        -5.4530    3.7560   -0.2200 ho        1 MOL      0.392539
     90 H39        -5.0190    4.8380    3.0180 hc        1 MOL      0.070931
     91 H40        -6.1300    3.9990    2.0920 hc        1 MOL      0.070931
     92 H41        -4.7640    3.1040    2.8190 hc        1 MOL      0.070931
     93 N9         -1.8200    3.0840    2.7450 n         1 MOL     -0.692725
     94 C29        -0.9740    1.8980    3.1450 c3        1 MOL      0.030772
     95 C30        -1.3780    0.5770    2.4780 c         1 MOL      0.531066
     96 O16        -0.9900    0.3580    1.3000 o         1 MOL     -0.502363
     97 C31         0.5330    2.2980    3.0880 c3        1 MOL      0.005330
     98 C32         0.8630    3.3380    4.1480 c3        1 MOL     -0.089905
     99 C33         1.4710    1.0490    3.3210 c3        1 MOL     -0.439911
    100 C34         2.1150    4.1830    3.6890 c3        1 MOL     -0.054371
    101 H42        -2.0970    3.6880    3.5090 hn        1 MOL      0.340585
    102 H43        -1.1020    1.7020    4.2120 h1        1 MOL      0.051195
    103 H44         0.7620    2.8150    2.1580 hc        1 MOL      0.183945
    104 H45         1.0930    2.8690    5.1020 hc        1 MOL      0.033954
    105 H46         0.0640    4.0560    4.3370 hc        1 MOL      0.033954
    106 H47         2.4720    1.3540    3.6160 hc        1 MOL      0.109382
    107 H48         1.0790    0.3650    4.0710 hc        1 MOL      0.109382
    108 H49         1.5040    0.4770    2.3950 hc        1 MOL      0.109382
    109 H50         1.9220    4.7400    2.7760 hc        1 MOL      0.019720
    110 H51         2.4750    4.9040    4.4200 hc        1 MOL      0.019720
    111 H52         2.9940    3.5950    3.4220 hc        1 MOL      0.019720
    112 N10        -2.0050   -0.3290    3.1920 n         1 MOL     -0.169303
    113 C35        -2.2700   -1.6350    2.6070 c3        1 MOL     -0.153352
    114 C36        -3.7200   -1.7910    2.1300 c         1 MOL      0.392496
    115 O17        -4.1230   -2.8120    1.4860 o         1 MOL     -0.530074
    116 C37        -1.8940   -2.8020    3.5320 c3        1 MOL      0.395187
    117 C38        -2.3300   -2.7670    5.0500 c3        1 MOL     -0.335739
    118 O18        -0.4980   -3.0100    3.6020 oh        1 MOL     -0.641252
    119 H53        -2.0420   -0.1440    4.1790 hn        1 MOL      0.188012
    120 H54        -1.6820   -1.7160    1.7050 h1        1 MOL      0.143039
    121 H55        -2.3510   -3.6920    3.0800 h1        1 MOL      0.020191
    122 H56        -0.1180   -3.0260    2.7160 ho        1 MOL      0.370077
    123 H57        -1.8100   -3.5170    5.6400 hc        1 MOL      0.083350
    124 H58        -1.9570   -1.8360    5.4810 hc        1 MOL      0.083350
    125 H59        -3.4010   -2.8750    5.1960 hc        1 MOL      0.083350
    126 N11        -4.6270   -0.8030    2.4120 n         1 MOL     -0.128308
    127 C39        -6.0640   -0.9160    2.1190 c3        1 MOL     -0.063068
    128 C40        -6.4010   -1.1720    0.6420 c         1 MOL      0.378108
    129 O19        -6.0790   -0.2340   -0.1490 o         1 MOL     -0.456333
    130 C41        -6.7170    0.4330    2.5750 c3        1 MOL      0.400971
    131 C42        -8.1460    0.4340    3.0740 c3        1 MOL     -0.442281
    132 O20        -6.0090    0.9140    3.6750 oh        1 MOL     -0.626118
    133 H60        -4.3020    0.0580    2.8370 hn        1 MOL      0.110260
    134 H61        -6.5280   -1.6620    2.7680 h1        1 MOL      0.067062
    135 H62        -6.5340    1.2020    1.8290 h1        1 MOL     -0.030474
    136 H63        -6.4660    1.6840    4.0320 ho        1 MOL      0.397587
    137 H64        -8.3160   -0.3800    3.7670 hc        1 MOL      0.109735
    138 H65        -8.3710    1.4660    3.3720 hc        1 MOL      0.109735
    139 H66        -8.8450    0.1530    2.2890 hc        1 MOL      0.109735
    140 N12        -6.8160   -2.3920    0.2850 n         1 MOL     -0.280918
    141 C43        -6.9730   -2.9880   -1.0680 c3        1 MOL      0.155514
    142 C44        -5.8070   -2.5500   -2.0140 c         1 MOL      0.541150
    143 O21        -5.9630   -1.8090   -2.9540 o         1 MOL     -0.496290
    144 C45        -8.3260   -2.6810   -1.7380 c3        1 MOL     -0.453785
    145 C46        -9.4270   -3.2280   -0.9020 c3        1 MOL      0.171110
    146 C47       -10.7930   -2.7800   -1.4740 c3        1 MOL     -0.100791
    147 C48       -11.9070   -3.2720   -0.4840 c3        1 MOL      0.078858
    148 N13       -13.2660   -3.0070   -0.9240 n4        1 MOL     -0.081534
    149 H67        -7.0410   -2.9950    1.0640 hn        1 MOL      0.235296
    150 H68        -6.9330   -4.0720   -1.0700 h1        1 MOL      0.051538
    151 H69        -8.3430   -3.1180   -2.7280 hc        1 MOL      0.151858
    152 H70        -8.4420   -1.6020   -1.8020 hc        1 MOL      0.151858
    153 H71        -9.2560   -2.9220    0.1220 hc        1 MOL     -0.007765
    154 H72        -9.3770   -4.3060   -0.7600 hc        1 MOL     -0.007765
    155 H73       -10.9180   -3.2300   -2.4580 hc        1 MOL      0.051465
    156 H74       -10.8210   -1.6960   -1.5700 hc        1 MOL      0.051465
    157 H75       -11.7640   -2.6500    0.3960 hx        1 MOL      0.029119
    158 H76       -11.7090   -4.3090   -0.2130 hx        1 MOL      0.029119
    159 H77       -13.6280   -3.5310   -1.7140 hn        1 MOL      0.158644
    160 H78       -13.8750   -3.2940   -0.1740 hn        1 MOL      0.158644
    161 H79       -13.4260   -2.0490   -1.2050 hn        1 MOL      0.158644
    162 N14        -4.5260   -2.9960   -1.7950 n         1 MOL     -0.710685
    163 C49        -3.3160   -2.4280   -2.4080 c3        1 MOL      0.508738
    164 C50        -2.0980   -2.3500   -1.4870 c         1 MOL      0.687213
    165 O22        -1.8100   -1.3360   -0.8930 o         1 MOL     -0.651295
    166 C51        -3.0220   -3.0530   -3.7730 c3        1 MOL     -0.308691
    167 C52        -1.8240   -2.4220   -4.4240 c3        1 MOL      0.048878
    168 C53        -1.9320   -0.8860   -4.5350 c         1 MOL      0.573790
    169 O23        -2.3100   -0.3270   -5.6200 o         1 MOL     -0.594510
    170 O24        -1.6820   -0.1780   -3.4890 o         1 MOL     -0.594510
    171 H80        -4.3160   -3.6640   -1.0700 hn        1 MOL      0.308710
    172 H81        -3.5830   -1.3960   -2.6380 h1        1 MOL      0.006765
    173 H82        -3.8780   -2.8680   -4.4240 hc        1 MOL      0.061600
    174 H83        -2.9520   -4.1400   -3.7370 hc        1 MOL      0.061600
    175 H84        -1.7040   -2.8240   -5.4300 hc        1 MOL     -0.012869
    176 H85        -0.9200   -2.6970   -3.8690 hc        1 MOL     -0.012869
    177 N15        -1.5350   -3.4620   -0.9850 n         1 MOL     -0.477535
    178 C54        -1.9030   -4.8770   -1.1920 c3        1 MOL     -0.115036
    179 H86        -1.3440   -5.5020   -0.4960 h1        1 MOL      0.054161
    180 H87        -2.9710   -5.0050   -1.0180 h1        1 MOL      0.054161
    181 H88        -1.6630   -5.1700   -2.2150 h1        1 MOL      0.054161
    182 H89        -0.6130   -3.3070   -0.6150 hn        1 MOL      0.440569
    183 Ca1        -1.0380    1.1550   -1.3390 Ca        1 MOL      1.640131
    184 O25        -2.7710    2.6100   -2.8430 oh        1 MOL     -0.835705
    185 H90        -2.5290    2.6050   -3.7730 ho        1 MOL      0.389499
    186 H91        -2.9040    3.5320   -2.6390 ho        1 MOL      0.389499
    187 O26         1.0030   -0.3830   -2.5330 oh        1 MOL     -0.835705
    188 H92         0.7190   -1.2670   -2.2900 ho        1 MOL      0.389499
    189 H93         1.9030   -0.3360   -2.2040 ho        1 MOL      0.389499
    190 O27        -3.5680    0.9580   -0.3840 oh        1 MOL     -0.835705
    191 H94        -4.3100    0.3490   -0.3840 ho        1 MOL      0.389499
    192 H95        -3.9720    1.8310   -0.3530 ho        1 MOL      0.389499
@<TRIPOS>BOND
     1    1    2 1   
     2    1    4 1   
     3    1    5 1   
     4    1    6 1   
     5    2    3 2   
     6    2    7 1   
     7    7    8 1   
     8    7   15 1   
     9    8    9 1   
    10    8   11 1   
    11    8   16 1   
    12    9   10 2   
    13    9   19 1   
    14   11   12 1   
    15   11   17 1   
    16   11   18 1   
    17   12   13 1   
    18   12   14 1   
    19   19   20 1   
    20   19   28 1   
    21   20   21 1   
    22   20   23 1   
    23   20   29 1   
    24   21   22 2   
    25   21   41 1   
    26   23   24 1   
    27   23   30 1   
    28   23   31 1   
    29   24   25 1   
    30   24   32 1   
    31   24   33 1   
    32   25   26 1   
    33   25   34 1   
    34   25   35 1   
    35   26   27 1   
    36   26   36 1   
    37   26   37 1   
    38   27   38 1   
    39   27   39 1   
    40   27   40 1   
    41   41   42 1   
    42   41   49 1   
    43   42   43 1   
    44   42   45 1   
    45   42   50 1   
    46   43   44 2   
    47   43   53 1   
    48   45   46 1   
    49   45   51 1   
    50   45   52 1   
    51   46   47 1   
    52   46   48 1   
    53   53   54 1   
    54   53   57 1   
    55   54   55 1   
    56   54   58 1   
    57   54   59 1   
    58   55   56 2   
    59   55   60 1   
    60   60   61 1   
    61   60   68 1   
    62   61   62 1   
    63   61   64 1   
    64   61   69 1   
    65   62   63 2   
    66   62   72 1   
    67   64   65 1   
    68   64   70 1   
    69   64   71 1   
    70   65   66 1   
    71   65   67 1   
    72   72   73 1   
    73   72   76 1   
    74   73   74 1   
    75   73   77 1   
    76   73   78 1   
    77   74   75 2   
    78   74   79 1   
    79   79   80 1   
    80   79   86 1   
    81   80   81 1   
    82   80   83 1   
    83   80   87 1   
    84   81   82 2   
    85   81   93 1   
    86   83   84 1   
    87   83   85 1   
    88   83   88 1   
    89   84   90 1   
    90   84   91 1   
    91   84   92 1   
    92   85   89 1   
    93   93   94 1   
    94   93  101 1   
    95   94   95 1   
    96   94   97 1   
    97   94  102 1   
    98   95   96 2   
    99   95  112 1   
   100   97   98 1   
   101   97   99 1   
   102   97  103 1   
   103   98  100 1   
   104   98  104 1   
   105   98  105 1   
   106   99  106 1   
   107   99  107 1   
   108   99  108 1   
   109  100  109 1   
   110  100  110 1   
   111  100  111 1   
   112  112  113 1   
   113  112  119 1   
   114  113  114 1   
   115  113  116 1   
   116  113  120 1   
   117  114  115 2   
   118  114  126 1   
   119  116  117 1   
   120  116  118 1   
   121  116  121 1   
   122  117  123 1   
   123  117  124 1   
   124  117  125 1   
   125  118  122 1   
   126  126  127 1   
   127  126  133 1   
   128  127  128 1   
   129  127  130 1   
   130  127  134 1   
   131  128  129 2   
   132  128  140 1   
   133  130  131 1   
   134  130  132 1   
   135  130  135 1   
   136  131  137 1   
   137  131  138 1   
   138  131  139 1   
   139  132  136 1   
   140  140  141 1   
   141  140  149 1   
   142  141  142 1   
   143  141  144 1   
   144  141  150 1   
   145  142  143 2   
   146  142  162 1   
   147  144  145 1   
   148  144  151 1   
   149  144  152 1   
   150  145  146 1   
   151  145  153 1   
   152  145  154 1   
   153  146  147 1   
   154  146  155 1   
   155  146  156 1   
   156  147  148 1   
   157  147  157 1   
   158  147  158 1   
   159  148  159 1   
   160  148  160 1   
   161  148  161 1   
   162  162  163 1   
   163  162  171 1   
   164  163  164 1   
   165  163  166 1   
   166  163  172 1   
   167  164  165 2   
   168  164  177 1   
   169  166  167 1   
   170  166  173 1   
   171  166  174 1   
   172  167  168 1   
   173  167  175 1   
   174  167  176 1   
   175  168  169 1   
   176  168  170 1   
   177  177  178 1   
   178  177  182 1   
   179  178  179 1   
   180  178  180 1   
   181  178  181 1   
   182  184  185 1   
   183  184  186 1   
   184  187  188 1   
   185  187  189 1   
   186  190  191 1   
   187  190  192 1   
@<TRIPOS>SUBSTRUCTURE
     1 MOL         1 TEMP              0 ****  ****    0 ROOT
