@<TRIPOS>MOLECULE
MOL
  195   189     1     0     0
SMALL
resp


@<TRIPOS>ATOM
      1 C1         -8.8280    5.1470    5.1750 c3        1 MOL     -0.366554
      2 C2         -8.4690    4.7100    3.6980 c         1 MOL      0.730944
      3 O1         -9.0300    3.7320    3.2020 o         1 MOL     -0.604505
      4 H1         -9.5470    4.4440    5.5960 hc        1 MOL      0.088101
      5 H2         -7.9240    5.1490    5.7840 hc        1 MOL      0.088101
      6 H3         -9.2620    6.1470    5.1640 hc        1 MOL      0.088101
      7 N1         -7.5080    5.4040    3.1150 n         1 MOL     -0.680860
      8 C3         -7.0600    5.2030    1.7020 c3        1 MOL      0.403801
      9 C4         -6.0810    3.9680    1.6350 c         1 MOL      0.499697
     10 O2         -5.7330    3.3500    2.6370 o         1 MOL     -0.529052
     11 C5         -6.5280    6.5220    1.1380 c3        1 MOL     -0.262124
     12 C6         -7.2790    7.7820    1.5670 c         1 MOL      0.699519
     13 O3         -8.5360    7.8490    1.6120 o         1 MOL     -0.610683
     14 O4         -6.6150    8.8220    1.8590 o         1 MOL     -0.610683
     15 H4         -7.0280    6.0460    3.7190 hn        1 MOL      0.347059
     16 H5         -7.8810    4.9980    1.0250 h1        1 MOL      0.001899
     17 H6         -6.5420    6.5660    0.0490 hc        1 MOL      0.045520
     18 H7         -5.4900    6.5990    1.4470 hc        1 MOL      0.045520
     19 N2         -5.6660    3.5660    0.4020 n         1 MOL     -0.648425
     20 C7         -4.8520    2.3590    0.1980 c3        1 MOL      0.169664
     21 C8         -3.4960    2.6130   -0.5440 c         1 MOL      0.664924
     22 O5         -3.5290    3.0160   -1.6670 o         1 MOL     -0.587607
     23 C9         -5.7090    1.2450   -0.4380 c3        1 MOL     -0.023613
     24 C10        -6.8510    0.8240    0.5210 c3        1 MOL     -0.097468
     25 C11        -7.7870   -0.3240   -0.0860 c3        1 MOL     -0.060949
     26 C12        -7.0930   -1.7160    0.0140 c3        1 MOL      0.063753
     27 N3         -7.6560   -2.7000   -0.8910 n4        1 MOL     -0.289497
     28 H8         -5.9640    4.1730   -0.3500 hn        1 MOL      0.306364
     29 H9         -4.5140    1.9270    1.1400 h1        1 MOL      0.048566
     30 H10        -5.1100    0.3510   -0.6330 hc        1 MOL      0.050922
     31 H11        -6.1160    1.5400   -1.4030 hc        1 MOL      0.050922
     32 H12        -7.5700    1.6230    0.7120 hc        1 MOL      0.063585
     33 H13        -6.3650    0.4600    1.4320 hc        1 MOL      0.063585
     34 H14        -8.0720   -0.1060   -1.1170 hc        1 MOL      0.044892
     35 H15        -8.7060   -0.4640    0.4870 hc        1 MOL      0.044892
     36 H16        -7.1260   -2.0870    1.0410 hx        1 MOL      0.041387
     37 H17        -6.0320   -1.7530   -0.2090 hx        1 MOL      0.041387
     38 H18        -7.5490   -2.4440   -1.8670 hn        1 MOL      0.276473
     39 H19        -7.1820   -3.5800   -0.7990 hn        1 MOL      0.276473
     40 H20        -8.6260   -2.8440   -0.6530 hn        1 MOL      0.276473
     41 N4         -2.3650    2.3630    0.1280 n         1 MOL     -0.618743
     42 C13        -1.0130    2.5930   -0.4170 c3        1 MOL      0.357459
     43 C14        -0.0340    1.5130    0.0740 c         1 MOL      0.490187
     44 O6          0.6980    1.8540    0.9540 o         1 MOL     -0.509495
     45 C15        -0.5950    4.0600   -0.1010 c3        1 MOL     -0.314048
     46 C16         0.7180    4.4400   -0.7220 c         1 MOL      0.718254
     47 O7          1.3330    3.7220   -1.5000 o         1 MOL     -0.750274
     48 O8          1.2340    5.5740   -0.4080 o         1 MOL     -0.750274
     49 H21        -2.5070    1.9260    1.0210 hn        1 MOL      0.305210
     50 H22        -1.0330    2.5540   -1.5060 h1        1 MOL      0.020107
     51 H23        -0.6260    4.2630    0.9710 hc        1 MOL      0.097856
     52 H24        -1.4380    4.6390   -0.4850 hc        1 MOL      0.097856
     53 N5         -0.0960    0.2480   -0.2490 n         1 MOL     -0.341450
     54 C17        -0.8050   -0.1390   -1.4850 c3        1 MOL     -0.309266
     55 C18        -2.2410   -0.6800   -1.4440 c         1 MOL      0.704589
     56 O9         -2.8530   -0.5960   -0.3930 o         1 MOL     -0.536677
     57 H25         0.3460   -0.4710    0.3140 hn        1 MOL      0.266410
     58 H26        -0.1570   -0.9650   -1.7990 h1        1 MOL      0.094237
     59 H27        -0.7500    0.6940   -2.1830 h1        1 MOL      0.094237
     60 N6         -2.7460   -1.3400   -2.4860 n         1 MOL     -0.403137
     61 C19        -4.0610   -1.8660   -2.6460 c3        1 MOL     -0.355537
     62 C20        -4.2380   -3.3830   -2.8270 c         1 MOL      0.786202
     63 O10        -5.2080   -4.0190   -2.4450 o         1 MOL     -0.553343
     64 C21        -4.6770   -1.0200   -3.7900 c3        1 MOL     -0.131404
     65 C22        -6.0370   -1.5710   -4.2620 c         1 MOL      0.630407
     66 O11        -6.8820   -1.8350   -3.3440 o         1 MOL     -0.647230
     67 O12        -6.2650   -1.8580   -5.4320 o         1 MOL     -0.647230
     68 H28        -2.1280   -1.5100   -3.2630 hn        1 MOL      0.227403
     69 H29        -4.6530   -1.6980   -1.7410 h1        1 MOL      0.185909
     70 H30        -4.0060   -1.0560   -4.6530 hc        1 MOL      0.046949
     71 H31        -4.7010    0.0120   -3.4470 hc        1 MOL      0.046949
     72 N7         -3.2070   -3.9960   -3.3770 n         1 MOL     -0.365287
     73 C23        -3.1800   -5.4110   -3.7150 c3        1 MOL     -0.242193
     74 C24        -2.6990   -6.2870   -2.5110 c         1 MOL      0.666513
     75 O13        -2.0660   -7.2750   -2.7000 o         1 MOL     -0.565941
     76 H32        -2.5840   -3.4080   -3.8960 hn        1 MOL      0.297153
     77 H33        -2.4370   -5.5280   -4.5050 h1        1 MOL      0.123462
     78 H34        -4.1820   -5.7010   -3.9980 h1        1 MOL      0.123462
     79 N8         -3.1540   -5.8940   -1.3220 n         1 MOL     -0.438348
     80 C25        -2.7430   -6.4470   -0.0640 c3        1 MOL     -0.101734
     81 C26        -2.6780   -5.2930    1.0300 c         1 MOL      0.614796
     82 O14        -3.5150   -4.4180    0.9450 o         1 MOL     -0.491027
     83 C27        -3.8120   -7.4960    0.3060 c3        1 MOL      0.378456
     84 C28        -4.1540   -8.6370   -0.6810 c3        1 MOL     -0.408622
     85 O15        -3.3780   -8.1830    1.4670 oh        1 MOL     -0.633622
     86 H35        -3.5790   -4.9870   -1.2900 hn        1 MOL      0.178195
     87 H36        -1.7320   -6.8520   -0.1360 h1        1 MOL      0.056960
     88 H37        -4.7030   -6.9660    0.6510 h1        1 MOL      0.062858
     89 H38        -2.7390   -8.8190    1.1470 ho        1 MOL      0.375606
     90 H39        -3.2520   -9.0440   -1.1390 hc        1 MOL      0.117046
     91 H40        -4.6250   -9.4090   -0.0660 hc        1 MOL      0.117046
     92 H41        -4.8840   -8.2940   -1.4130 hc        1 MOL      0.117046
     93 N9         -1.6710   -5.2550    1.9130 n         1 MOL     -0.492285
     94 C29        -1.1980   -4.0220    2.5030 c3        1 MOL      0.015571
     95 C30        -0.1900   -3.3240    1.6520 c         1 MOL      0.539369
     96 O16        -0.0520   -2.1030    1.6100 o         1 MOL     -0.537582
     97 C31        -0.5140   -4.3900    3.9390 c3        1 MOL      0.147353
     98 C32        -1.2560   -5.5380    4.7420 c3        1 MOL      0.009157
     99 C33        -0.3640   -3.0960    4.7940 c3        1 MOL     -0.315820
    100 C34        -2.7170   -5.2620    5.2160 c3        1 MOL     -0.169322
    101 H42        -1.1090   -6.0920    1.9790 hn        1 MOL      0.276955
    102 H43        -2.0060   -3.3180    2.7320 h1        1 MOL      0.109005
    103 H44         0.4690   -4.8170    3.7650 hc        1 MOL     -0.037182
    104 H45        -0.7120   -5.6940    5.6790 hc        1 MOL      0.009430
    105 H46        -1.2020   -6.4950    4.2200 hc        1 MOL      0.009430
    106 H47        -1.3160   -2.5600    4.7400 hc        1 MOL      0.091346
    107 H48        -0.2740   -3.3140    5.8510 hc        1 MOL      0.091346
    108 H49         0.4430   -2.4700    4.4010 hc        1 MOL      0.091346
    109 H50        -2.7270   -4.4160    5.9030 hc        1 MOL      0.049838
    110 H51        -3.2680   -5.0000    4.3150 hc        1 MOL      0.049838
    111 H52        -3.1720   -6.1490    5.6600 hc        1 MOL      0.049838
    112 N10         0.6460   -4.1420    1.0060 n         1 MOL     -0.274708
    113 C35         1.6420   -3.6830   -0.0440 c3        1 MOL     -0.209509
    114 C36         3.0530   -4.2650    0.1730 c         1 MOL      0.611412
    115 O17         3.2150   -5.3740    0.5950 o         1 MOL     -0.520607
    116 C37         1.0930   -4.0080   -1.4630 c3        1 MOL      0.195444
    117 C38         0.9890   -5.5580   -1.8060 c3        1 MOL     -0.387296
    118 O18        -0.2920   -3.5200   -1.5160 oh        1 MOL     -0.492494
    119 H53         0.5600   -5.1360    1.1990 hn        1 MOL      0.235513
    120 H54         1.7280   -2.6080    0.0690 h1        1 MOL      0.176192
    121 H55         1.5660   -3.3930   -2.2340 h1        1 MOL      0.041719
    122 H56        -0.5210   -3.3030   -2.4250 ho        1 MOL      0.340553
    123 H57         0.4470   -6.0910   -1.0240 hc        1 MOL      0.123069
    124 H58         0.4130   -5.6350   -2.7310 hc        1 MOL      0.123069
    125 H59         1.9290   -6.0870   -1.9710 hc        1 MOL      0.123069
    126 N11         4.1450   -3.4480    0.2080 n         1 MOL     -0.501992
    127 C39         5.3890   -3.9740    0.8760 c3        1 MOL      0.101192
    128 C40         6.3200   -2.8580    1.4010 c         1 MOL      0.508448
    129 O19         6.8840   -2.9490    2.5260 o         1 MOL     -0.549067
    130 C41         6.1850   -4.9930    0.0960 c3        1 MOL      0.233769
    131 C42         7.2580   -5.6050    0.9300 c3        1 MOL     -0.444866
    132 O20         6.7410   -4.5780   -1.1120 oh        1 MOL     -0.669857
    133 H60         3.9790   -2.4610    0.1130 hn        1 MOL      0.242428
    134 H61         5.0990   -4.4080    1.8270 h1        1 MOL      0.100260
    135 H62         5.4740   -5.7920   -0.1480 h1        1 MOL      0.073200
    136 H63         7.0720   -5.2860   -1.6780 ho        1 MOL      0.435553
    137 H64         6.8980   -6.1640    1.7870 hc        1 MOL      0.122129
    138 H65         7.9630   -6.1930    0.3380 hc        1 MOL      0.122129
    139 H66         7.9720   -4.8680    1.3080 hc        1 MOL      0.122129
    140 N12         6.5120   -1.8560    0.5710 n         1 MOL     -0.424765
    141 C43         7.3620   -0.6790    0.9430 c3        1 MOL     -0.006174
    142 C44         7.0110    0.6160    0.2700 c         1 MOL      0.437719
    143 O21         6.9860    0.6590   -0.9460 o         1 MOL     -0.491377
    144 C45         8.8430   -1.0640    0.6060 c3        1 MOL     -0.145824
    145 C46         9.8440   -0.1940    1.3300 c3        1 MOL     -0.005813
    146 C47        11.2430   -0.3270    0.6750 c3        1 MOL      0.059271
    147 C48        12.2070    0.4490    1.5990 c3        1 MOL      0.072380
    148 N13        13.5500    0.3840    0.9960 n4        1 MOL     -0.226619
    149 H67         5.9700   -1.7580   -0.2780 hn        1 MOL      0.310062
    150 H68         7.3970   -0.5600    2.0210 h1        1 MOL      0.084651
    151 H69         9.0860   -0.9830   -0.4520 hc        1 MOL      0.098661
    152 H70         9.0780   -2.0650    0.9660 hc        1 MOL      0.098661
    153 H71         9.9760   -0.5600    2.3450 hc        1 MOL      0.020988
    154 H72         9.5560    0.8620    1.2930 hc        1 MOL      0.020988
    155 H73        11.2610    0.0760   -0.3390 hc        1 MOL     -0.004124
    156 H74        11.5090   -1.3820    0.6140 hc        1 MOL     -0.004124
    157 H75        12.1330    0.0170    2.5930 hx        1 MOL      0.049563
    158 H76        11.8730    1.4920    1.6520 hx        1 MOL      0.049563
    159 H77        13.5870    0.8720    0.1090 hn        1 MOL      0.210932
    160 H78        14.2160    0.7980    1.6380 hn        1 MOL      0.210932
    161 H79        13.8020   -0.5920    0.9130 hn        1 MOL      0.210932
    162 N14         6.8050    1.6400    1.0580 n         1 MOL     -0.262967
    163 C49         6.3080    2.9220    0.5590 c3        1 MOL      0.078691
    164 C50         4.8500    2.7490    0.0710 c         1 MOL      0.428228
    165 O22         4.5200    3.3120   -1.0060 o         1 MOL     -0.644972
    166 C51         6.4700    4.0470    1.5420 c3        1 MOL     -0.231377
    167 C52         6.5020    5.4710    0.9470 c3        1 MOL      0.063111
    168 C53         5.2670    5.9500    0.0680 c         1 MOL      0.641579
    169 O23         5.4460    6.4670   -1.0390 o         1 MOL     -0.709651
    170 O24         4.0470    5.8310    0.4560 o         1 MOL     -0.709651
    171 H80         6.9340    1.5630    2.0510 hn        1 MOL      0.192606
    172 H81         6.8370    3.1510   -0.3710 h1        1 MOL      0.066839
    173 H82         7.4580    3.9730    1.9820 hc        1 MOL      0.079768
    174 H83         5.6650    3.9580    2.2770 hc        1 MOL      0.079768
    175 H84         7.3320    5.5420    0.2560 hc        1 MOL     -0.011728
    176 H85         6.6500    6.1750    1.7730 hc        1 MOL     -0.011728
    177 N15         3.8910    2.1220    0.7570 n         1 MOL     -0.148792
    178 C54         3.8740    1.7570    2.1480 c3        1 MOL     -0.252184
    179 H86         3.0590    1.0560    2.3300 h1        1 MOL      0.104374
    180 H87         4.8220    1.2880    2.4120 h1        1 MOL      0.104374
    181 H88         3.7280    2.6490    2.7560 h1        1 MOL      0.104374
    182 H89         2.9650    1.9350    0.3890 hn        1 MOL      0.248604
    183 Ca1         3.1640    5.5780   -2.0280 Ca        1 MOL      1.757128
    184 O25         1.0970    5.5400   -3.7090 oh        1 MOL     -0.825909
    185 H90         0.5810    4.7580   -3.8940 ho        1 MOL      0.413476
    186 H91         0.9170    6.1290   -4.4440 ho        1 MOL      0.413476
    187 O26         4.4430    4.2340   -3.9130 oh        1 MOL     -0.825909
    188 H92         4.9470    4.4090   -4.7120 ho        1 MOL      0.413476
    189 H93         4.2180    3.3060   -3.9710 ho        1 MOL      0.413476
    190 O27         2.1880    8.1220   -2.0330 oh        1 MOL     -0.825909
    191 H94         2.0880    8.0480   -1.0860 ho        1 MOL      0.413476
    192 H95         1.4290    8.6220   -2.3190 ho        1 MOL      0.413476
    193 O28         4.1720    7.0910   -4.1090 oh        1 MOL     -0.825909
    194 H96         4.2970    7.0910   -5.0560 ho        1 MOL      0.413476
    195 H97         4.7300    7.7930   -3.7910 ho        1 MOL      0.413476
@<TRIPOS>BOND
     1    1    2 1   
     2    1    4 1   
     3    1    5 1   
     4    1    6 1   
     5    2    3 2   
     6    2    7 1   
     7    7    8 1   
     8    7   15 1   
     9    8    9 1   
    10    8   11 1   
    11    8   16 1   
    12    9   10 2   
    13    9   19 1   
    14   11   12 1   
    15   11   17 1   
    16   11   18 1   
    17   12   13 1   
    18   12   14 1   
    19   19   20 1   
    20   19   28 1   
    21   20   21 1   
    22   20   23 1   
    23   20   29 1   
    24   21   22 2   
    25   21   41 1   
    26   23   24 1   
    27   23   30 1   
    28   23   31 1   
    29   24   25 1   
    30   24   32 1   
    31   24   33 1   
    32   25   26 1   
    33   25   34 1   
    34   25   35 1   
    35   26   27 1   
    36   26   36 1   
    37   26   37 1   
    38   27   38 1   
    39   27   39 1   
    40   27   40 1   
    41   41   42 1   
    42   41   49 1   
    43   42   43 1   
    44   42   45 1   
    45   42   50 1   
    46   43   44 2   
    47   43   53 1   
    48   45   46 1   
    49   45   51 1   
    50   45   52 1   
    51   46   47 1   
    52   46   48 1   
    53   53   54 1   
    54   53   57 1   
    55   54   55 1   
    56   54   58 1   
    57   54   59 1   
    58   55   56 2   
    59   55   60 1   
    60   60   61 1   
    61   60   68 1   
    62   61   62 1   
    63   61   64 1   
    64   61   69 1   
    65   62   63 2   
    66   62   72 1   
    67   64   65 1   
    68   64   70 1   
    69   64   71 1   
    70   65   66 1   
    71   65   67 1   
    72   72   73 1   
    73   72   76 1   
    74   73   74 1   
    75   73   77 1   
    76   73   78 1   
    77   74   75 2   
    78   74   79 1   
    79   79   80 1   
    80   79   86 1   
    81   80   81 1   
    82   80   83 1   
    83   80   87 1   
    84   81   82 2   
    85   81   93 1   
    86   83   84 1   
    87   83   85 1   
    88   83   88 1   
    89   84   90 1   
    90   84   91 1   
    91   84   92 1   
    92   85   89 1   
    93   93   94 1   
    94   93  101 1   
    95   94   95 1   
    96   94   97 1   
    97   94  102 1   
    98   95   96 2   
    99   95  112 1   
   100   97   98 1   
   101   97   99 1   
   102   97  103 1   
   103   98  100 1   
   104   98  104 1   
   105   98  105 1   
   106   99  106 1   
   107   99  107 1   
   108   99  108 1   
   109  100  109 1   
   110  100  110 1   
   111  100  111 1   
   112  112  113 1   
   113  112  119 1   
   114  113  114 1   
   115  113  116 1   
   116  113  120 1   
   117  114  115 2   
   118  114  126 1   
   119  116  117 1   
   120  116  118 1   
   121  116  121 1   
   122  117  123 1   
   123  117  124 1   
   124  117  125 1   
   125  118  122 1   
   126  126  127 1   
   127  126  133 1   
   128  127  128 1   
   129  127  130 1   
   130  127  134 1   
   131  128  129 2   
   132  128  140 1   
   133  130  131 1   
   134  130  132 1   
   135  130  135 1   
   136  131  137 1   
   137  131  138 1   
   138  131  139 1   
   139  132  136 1   
   140  140  141 1   
   141  140  149 1   
   142  141  142 1   
   143  141  144 1   
   144  141  150 1   
   145  142  143 2   
   146  142  162 1   
   147  144  145 1   
   148  144  151 1   
   149  144  152 1   
   150  145  146 1   
   151  145  153 1   
   152  145  154 1   
   153  146  147 1   
   154  146  155 1   
   155  146  156 1   
   156  147  148 1   
   157  147  157 1   
   158  147  158 1   
   159  148  159 1   
   160  148  160 1   
   161  148  161 1   
   162  162  163 1   
   163  162  171 1   
   164  163  164 1   
   165  163  166 1   
   166  163  172 1   
   167  164  165 2   
   168  164  177 1   
   169  166  167 1   
   170  166  173 1   
   171  166  174 1   
   172  167  168 1   
   173  167  175 1   
   174  167  176 1   
   175  168  169 1   
   176  168  170 1   
   177  177  178 1   
   178  177  182 1   
   179  178  179 1   
   180  178  180 1   
   181  178  181 1   
   182  184  185 1   
   183  184  186 1   
   184  187  188 1   
   185  187  189 1   
   186  190  191 1   
   187  190  192 1   
   188  193  194 1   
   189  193  195 1   
@<TRIPOS>SUBSTRUCTURE
     1 MOL         1 TEMP              0 ****  ****    0 ROOT
