@<TRIPOS>MOLECULE
MOL
  186   183     1     0     0
SMALL
resp


@<TRIPOS>ATOM
      1 C1          4.9120    4.0680   -4.2000 c3        1 MOL     -0.409454
      2 C2          5.5550    3.3690   -2.9110 c         1 MOL      0.657588
      3 O1          4.9440    3.3920   -1.8690 o         1 MOL     -0.470636
      4 H1          4.7370    5.1240   -3.9900 hc        1 MOL      0.090793
      5 H2          5.5960    3.9750   -5.0440 hc        1 MOL      0.090793
      6 H3          3.9660    3.5840   -4.4420 hc        1 MOL      0.090793
      7 N1          6.6910    2.7400   -3.0470 n         1 MOL     -0.533887
      8 C3          7.2000    1.6810   -2.2870 c3        1 MOL      0.127928
      9 C4          6.1140    0.6790   -1.9690 c         1 MOL      0.555294
     10 O2          5.6000    0.5420   -0.8350 o         1 MOL     -0.672153
     11 C5          8.0870    2.0440   -1.0440 c3        1 MOL     -0.248959
     12 C6          7.4550    3.1050   -0.0160 c         1 MOL      0.735552
     13 O3          6.8240    2.7060    0.9770 o         1 MOL     -0.693626
     14 O4          7.7730    4.2540   -0.1260 o         1 MOL     -0.693626
     15 H4          7.0410    2.6680   -3.9890 hn        1 MOL      0.293378
     16 H5          7.7810    1.1650   -3.0520 h1        1 MOL      0.006064
     17 H6          8.9720    2.5050   -1.4870 hc        1 MOL      0.048175
     18 H7          8.3490    1.0910   -0.5880 hc        1 MOL      0.048175
     19 N2          5.5950    0.0020   -3.0050 n         1 MOL     -0.390125
     20 C7          4.8200   -1.2110   -2.9890 c3        1 MOL      0.021996
     21 C8          5.4800   -2.4330   -2.3720 c         1 MOL      0.458517
     22 O5          6.1630   -3.1260   -3.1380 o         1 MOL     -0.564967
     23 C9          3.2980   -0.9450   -2.6580 c3        1 MOL      0.192756
     24 C10         2.3230   -2.1580   -2.7410 c3        1 MOL     -0.294709
     25 C11         2.7010    0.3150   -3.3450 c3        1 MOL      0.012452
     26 C12         1.9070   -2.6650   -4.1640 c3        1 MOL     -0.260755
     27 H8          5.9940    0.2350   -3.9070 hn        1 MOL      0.229681
     28 H9          4.6880   -1.5390   -4.0190 h1        1 MOL      0.023964
     29 H10         3.2280   -0.6540   -1.6110 hc        1 MOL      0.054090
     30 H11         1.4020   -1.8200   -2.2740 hc        1 MOL      0.115769
     31 H12         2.7980   -3.0100   -2.2530 hc        1 MOL      0.115769
     32 H13         2.5210    0.1780   -4.4150 hc        1 MOL     -0.015679
     33 H14         1.7350    0.6000   -2.9330 hc        1 MOL     -0.015679
     34 H15         3.4330    1.1250   -3.2630 hc        1 MOL     -0.015679
     35 H16         1.2930   -1.9540   -4.7050 hc        1 MOL      0.061650
     36 H17         2.7680   -2.8340   -4.8160 hc        1 MOL      0.061650
     37 H18         1.2580   -3.5340   -4.1980 hc        1 MOL      0.061650
     38 N3          5.3460   -2.6900   -1.0450 n         1 MOL     -0.164377
     39 C13         6.0880   -3.6510   -0.3550 c3        1 MOL     -0.049893
     40 C14         5.5860   -5.0850   -0.4770 c         1 MOL      0.614875
     41 O6          6.2580   -5.9890   -1.0000 o         1 MOL     -0.585346
     42 C15         6.4980   -3.2000    1.0700 c3        1 MOL     -0.230560
     43 C16         7.3120   -1.8640    1.1200 c         1 MOL      0.745293
     44 O7          8.5300   -1.7880    0.9060 o         1 MOL     -0.709055
     45 O8          6.7160   -0.8770    1.5990 o         1 MOL     -0.709055
     46 H19         4.7290   -2.0620   -0.5440 hn        1 MOL      0.342732
     47 H20         7.0310   -3.6420   -0.9060 h1        1 MOL      0.055601
     48 H21         7.2210   -3.9250    1.4610 hc        1 MOL      0.074731
     49 H22         5.6930   -3.2340    1.7920 hc        1 MOL      0.074731
     50 N4          4.3920   -5.4830    0.0330 n         1 MOL     -0.616172
     51 C17         3.3820   -4.7000    0.7810 c3        1 MOL      0.107084
     52 C18         3.7200   -4.7260    2.2850 c         1 MOL      0.469523
     53 O9          4.2580   -5.6940    2.8340 o         1 MOL     -0.528587
     54 H23         4.1660   -6.4660    0.0090 hn        1 MOL      0.321150
     55 H24         2.4560   -5.2680    0.7260 h1        1 MOL      0.054110
     56 H25         3.2410   -3.6810    0.4280 h1        1 MOL      0.054110
     57 N5          3.2910   -3.5910    2.9670 n         1 MOL     -0.385959
     58 C19         2.2420   -2.5680    2.7700 c3        1 MOL      0.005501
     59 C20         2.4470   -1.5880    1.5610 c         1 MOL      0.074593
     60 O10         3.5610   -1.2320    1.2720 o         1 MOL     -0.544337
     61 C21         2.1720   -1.6330    4.0500 c3        1 MOL     -0.199174
     62 C22         3.5810   -1.1780    4.4250 c         1 MOL      0.801543
     63 O11         3.8730   -0.1010    3.9630 o         1 MOL     -0.717564
     64 O12         4.3270   -1.8120    5.1910 o         1 MOL     -0.717564
     65 H26         3.6800   -3.5950    3.8940 hn        1 MOL      0.269210
     66 H27         1.2630   -3.0150    2.6040 h1        1 MOL      0.074877
     67 H28         1.7920   -2.1470    4.9310 hc        1 MOL      0.039282
     68 H29         1.5340   -0.7730    3.8560 hc        1 MOL      0.039282
     69 N6          1.3990   -0.9270    1.0090 n         1 MOL      0.088876
     70 C23        -0.0560   -1.1850    1.1810 c3        1 MOL     -0.053929
     71 C24        -0.5110   -2.5510    0.6200 c         1 MOL      0.599801
     72 O13         0.3060   -3.3360    0.1570 o         1 MOL     -0.562793
     73 H30         1.7040   -0.2520    0.3280 hn        1 MOL      0.017623
     74 H31        -0.5480   -0.4160    0.5810 h1        1 MOL      0.034218
     75 H32        -0.3660   -1.1390    2.2180 h1        1 MOL      0.034218
     76 N7         -1.7930   -2.8940    0.7390 n         1 MOL     -0.386703
     77 C25        -2.4130   -4.1500    0.4060 c3        1 MOL      0.134708
     78 C26        -3.1910   -4.0800   -0.9430 c         1 MOL      0.379233
     79 O14        -3.2600   -5.1420   -1.5250 o         1 MOL     -0.519438
     80 C27        -3.2220   -4.8020    1.5660 c3        1 MOL     -0.211390
     81 C28        -4.3350   -3.9310    2.2320 c3        1 MOL     -0.375751
     82 C29        -5.4680   -3.6520    1.2870 c         1 MOL      0.567628
     83 N8         -6.1450   -4.6920    0.7350 n         1 MOL     -0.774290
     84 O15        -5.7670   -2.5670    1.0030 o         1 MOL     -0.479274
     85 H33        -2.4280   -2.2210    1.1360 hn        1 MOL      0.227465
     86 H34        -1.6050   -4.8410    0.1590 h1        1 MOL      0.086842
     87 H35        -2.4360   -5.0320    2.2860 hc        1 MOL      0.095169
     88 H36        -3.6740   -5.7180    1.1800 hc        1 MOL      0.095169
     89 H37        -3.8610   -2.9690    2.4710 hc        1 MOL      0.149999
     90 H38        -4.7150   -4.4910    3.0860 hc        1 MOL      0.149999
     91 H39        -5.8930   -5.6210    1.0230 hn        1 MOL      0.371861
     92 H40        -7.0160   -4.3600    0.3480 hn        1 MOL      0.371861
     93 N9         -3.6860   -2.9340   -1.3490 n         1 MOL     -0.117161
     94 C30        -4.0500   -2.7060   -2.7310 c3        1 MOL     -0.262667
     95 C31        -5.4090   -2.0000   -2.9240 c         1 MOL      0.529419
     96 O16        -5.8680   -1.7320   -4.0930 o         1 MOL     -0.540864
     97 C32        -3.0170   -1.8200   -3.4160 c3        1 MOL      0.097955
     98 C33        -1.8070   -2.6650   -3.8810 c3        1 MOL     -0.169348
     99 C34        -2.4890   -0.6910   -2.6000 c3        1 MOL     -0.169348
    100 H41        -3.6620   -2.1210   -0.7390 hn        1 MOL      0.218326
    101 H42        -4.2230   -3.5890   -3.3320 h1        1 MOL      0.172261
    102 H43        -3.4420   -1.2640   -4.2530 hc        1 MOL      0.020162
    103 H44        -2.0090   -3.5420   -4.4990 hc        1 MOL      0.053783
    104 H45        -1.1240   -1.9790   -4.3820 hc        1 MOL      0.053783
    105 H46        -1.3090   -2.9800   -2.9740 hc        1 MOL      0.053783
    106 H47        -1.8780   -0.0960   -3.2710 hc        1 MOL      0.053783
    107 H48        -3.3000   -0.1230   -2.1270 hc        1 MOL      0.053783
    108 H49        -1.8980   -1.1330   -1.7970 hc        1 MOL      0.053783
    109 N10        -6.1870   -1.7730   -1.8140 n         1 MOL     -0.423585
    110 C35        -7.4540   -0.9370   -1.8220 c3        1 MOL      0.047124
    111 C36        -7.2540    0.5050   -1.4480 c         1 MOL      0.495980
    112 O17        -8.1870    1.2770   -1.7480 o         1 MOL     -0.539065
    113 C37        -8.5710   -1.5370   -0.9500 c3        1 MOL      0.045851
    114 C38        -9.0020   -2.8780   -1.3970 c         1 MOL      0.623089
    115 N11        -9.4520   -3.0790   -2.6630 n         1 MOL     -0.809685
    116 O18        -9.0470   -3.7750   -0.5600 o         1 MOL     -0.570366
    117 H50        -5.6360   -1.7500   -0.9630 hn        1 MOL      0.199343
    118 H51        -7.7740   -0.8690   -2.8560 h1        1 MOL      0.077076
    119 H52        -9.3930   -0.8340   -1.0950 hc        1 MOL     -0.012866
    120 H53        -8.3430   -1.6050    0.1090 hc        1 MOL     -0.012866
    121 H54        -9.5610   -2.3820   -3.3780 hn        1 MOL      0.370670
    122 H55        -9.6130   -4.0510   -2.8820 hn        1 MOL      0.370670
    123 N12        -6.1110    0.9440   -0.8870 n         1 MOL     -0.400797
    124 C39        -6.0960    2.3700   -0.3930 c3        1 MOL      0.123729
    125 C40        -4.6630    2.8770   -0.0520 c         1 MOL      0.365010
    126 O19        -3.6330    2.2120   -0.3090 o         1 MOL     -0.456338
    127 C41        -7.0160    2.4630    0.8190 c3        1 MOL     -0.490032
    128 C42        -6.7600    1.3650    1.8720 ca        1 MOL      0.061062
    129 C43        -7.7030    0.3280    1.9540 ca        1 MOL     -0.081544
    130 C44        -5.6740    1.3280    2.7130 ca        1 MOL     -0.081544
    131 C45        -7.5730   -0.7610    2.8340 ca        1 MOL     -0.398150
    132 C46        -5.4780    0.2410    3.5280 ca        1 MOL     -0.398150
    133 C47        -6.3810   -0.8430    3.5500 ca        1 MOL      0.492464
    134 O20        -6.1390   -1.9060    4.3560 oh        1 MOL     -0.536556
    135 H56        -5.3500    0.3130   -0.6880 hn        1 MOL      0.326939
    136 H57        -6.4680    3.0020   -1.2020 h1        1 MOL      0.096947
    137 H58        -8.0240    2.3730    0.4210 hc        1 MOL      0.174946
    138 H59        -7.0330    3.3770    1.4040 hc        1 MOL      0.174946
    139 H60        -8.5080    0.3110    1.2200 ha        1 MOL      0.128503
    140 H61        -4.9670    2.1350    2.8350 ha        1 MOL      0.128503
    141 H62        -8.2410   -1.6000    2.7040 ha        1 MOL      0.192603
    142 H63        -4.6070    0.1980    4.1680 ha        1 MOL      0.192603
    143 H64        -6.8120   -2.5790    4.2200 ho        1 MOL      0.354437
    144 N13        -4.6130    4.1510    0.3680 n         1 MOL     -0.489292
    145 C48        -3.4680    4.9510    1.0200 c3        1 MOL      0.007514
    146 C49        -2.2150    5.2030    0.1610 c         1 MOL      0.232352
    147 O21        -1.6410    6.3040    0.2930 o         1 MOL     -0.413775
    148 C50        -3.0530    4.3580    2.3480 c3        1 MOL     -0.131815
    149 C51        -2.0570    5.2010    3.2370 c3        1 MOL     -0.346892
    150 C52        -2.4440    6.6360    3.6860 c         1 MOL      0.743936
    151 O22        -1.5480    7.4820    3.9950 o         1 MOL     -0.726719
    152 O23        -3.6570    6.8500    3.5560 o         1 MOL     -0.726719
    153 H65        -5.4690    4.6900    0.4550 hn        1 MOL      0.310416
    154 H66        -3.8780    5.9520    1.1860 h1        1 MOL      0.133691
    155 H67        -2.7170    3.3390    2.1630 hc        1 MOL      0.096046
    156 H68        -3.9290    4.1320    2.9650 hc        1 MOL      0.096046
    157 H69        -1.0560    5.2590    2.8110 hc        1 MOL      0.080418
    158 H70        -1.9500    4.5740    4.1230 hc        1 MOL      0.080418
    159 N14        -1.6810    4.2220   -0.4750 n         1 MOL     -0.085791
    160 C53        -0.5200    4.3310   -1.3090 c3        1 MOL     -0.208803
    161 C54        -0.5880    5.1150   -2.6500 c         1 MOL      0.471777
    162 O24         0.3690    5.7390   -3.0340 o         1 MOL     -0.495791
    163 C55        -0.0730    2.8910   -1.6100 c3        1 MOL     -0.059965
    164 C56         0.2740    2.0060   -0.4000 c3        1 MOL      0.476731
    165 C57         1.5670    2.5110    0.4540 c         1 MOL      0.522702
    166 O25         1.5850    3.6580    0.9900 o         1 MOL     -0.625133
    167 O26         2.5310    1.7070    0.6470 o         1 MOL     -0.625133
    168 H71        -2.2510    3.3840   -0.5400 hn        1 MOL      0.295824
    169 H72         0.2800    4.8310   -0.7490 h1        1 MOL      0.198065
    170 H73         0.8890    2.9720   -2.1210 hc        1 MOL     -0.004650
    171 H74        -0.8910    2.3790   -2.1190 hc        1 MOL     -0.004650
    172 H75         0.4540    1.0050   -0.7960 hc        1 MOL     -0.204086
    173 H76        -0.6120    1.8890    0.2130 hc        1 MOL     -0.204086
    174 N15        -1.7520    5.1420   -3.2950 n         1 MOL     -0.275067
    175 C58        -2.1140    6.1610   -4.3130 c3        1 MOL     -0.291681
    176 H77        -2.3600    7.0990   -3.8150 h1        1 MOL      0.120498
    177 H78        -1.2710    6.3170   -4.9870 h1        1 MOL      0.120498
    178 H79        -2.9760    5.8160   -4.8830 h1        1 MOL      0.120498
    179 H80        -2.3980    4.4810   -2.9050 hn        1 MOL      0.217258
    180 Ca1         4.9060    1.0800    1.7310 Ca        1 MOL      1.800405
    181 O27         3.9400    3.2580    2.6440 oh        1 MOL     -0.933898
    182 H81         3.7780    3.8460    3.3740 ho        1 MOL      0.438534
    183 H82         3.2130    3.4080    2.0410 ho        1 MOL      0.438534
    184 O28         6.5020    1.3540    3.7180 oh        1 MOL     -0.933898
    185 H83         6.5780    0.6240    4.3290 ho        1 MOL      0.438534
    186 H84         6.9530    2.0760    4.1580 ho        1 MOL      0.438534
@<TRIPOS>BOND
     1    1    2 1   
     2    1    4 1   
     3    1    5 1   
     4    1    6 1   
     5    2    3 2   
     6    2    7 1   
     7    7    8 1   
     8    7   15 1   
     9    8    9 1   
    10    8   11 1   
    11    8   16 1   
    12    9   10 2   
    13    9   19 1   
    14   11   12 1   
    15   11   17 1   
    16   11   18 1   
    17   12   13 1   
    18   12   14 1   
    19   19   20 1   
    20   19   27 1   
    21   20   21 1   
    22   20   23 1   
    23   20   28 1   
    24   21   22 2   
    25   21   38 1   
    26   23   24 1   
    27   23   25 1   
    28   23   29 1   
    29   24   26 1   
    30   24   30 1   
    31   24   31 1   
    32   25   32 1   
    33   25   33 1   
    34   25   34 1   
    35   26   35 1   
    36   26   36 1   
    37   26   37 1   
    38   38   39 1   
    39   38   46 1   
    40   39   40 1   
    41   39   42 1   
    42   39   47 1   
    43   40   41 2   
    44   40   50 1   
    45   42   43 1   
    46   42   48 1   
    47   42   49 1   
    48   43   44 1   
    49   43   45 1   
    50   50   51 1   
    51   50   54 1   
    52   51   52 1   
    53   51   55 1   
    54   51   56 1   
    55   52   53 2   
    56   52   57 1   
    57   57   58 1   
    58   57   65 1   
    59   58   59 1   
    60   58   61 1   
    61   58   66 1   
    62   59   60 2   
    63   59   69 1   
    64   61   62 1   
    65   61   67 1   
    66   61   68 1   
    67   62   63 1   
    68   62   64 1   
    69   69   70 1   
    70   69   73 1   
    71   70   71 1   
    72   70   74 1   
    73   70   75 1   
    74   71   72 2   
    75   71   76 1   
    76   76   77 1   
    77   76   85 1   
    78   77   78 1   
    79   77   80 1   
    80   77   86 1   
    81   78   79 2   
    82   78   93 1   
    83   80   81 1   
    84   80   87 1   
    85   80   88 1   
    86   81   82 1   
    87   81   89 1   
    88   81   90 1   
    89   82   83 1   
    90   82   84 2   
    91   83   91 1   
    92   83   92 1   
    93   93   94 1   
    94   93  100 1   
    95   94   95 1   
    96   94   97 1   
    97   94  101 1   
    98   95   96 2   
    99   95  109 1   
   100   97   98 1   
   101   97   99 1   
   102   97  102 1   
   103   98  103 1   
   104   98  104 1   
   105   98  105 1   
   106   99  106 1   
   107   99  107 1   
   108   99  108 1   
   109  109  110 1   
   110  109  117 1   
   111  110  111 1   
   112  110  113 1   
   113  110  118 1   
   114  111  112 2   
   115  111  123 1   
   116  113  114 1   
   117  113  119 1   
   118  113  120 1   
   119  114  115 1   
   120  114  116 2   
   121  115  121 1   
   122  115  122 1   
   123  123  124 1   
   124  123  135 1   
   125  124  125 1   
   126  124  127 1   
   127  124  136 1   
   128  125  126 2   
   129  125  144 1   
   130  127  128 1   
   131  127  137 1   
   132  127  138 1   
   133  128  129 ar  
   134  128  130 ar  
   135  129  131 ar  
   136  129  139 1   
   137  130  132 ar  
   138  130  140 1   
   139  131  133 ar  
   140  131  141 1   
   141  132  133 ar  
   142  132  142 1   
   143  133  134 1   
   144  134  143 1   
   145  144  145 1   
   146  144  153 1   
   147  145  146 1   
   148  145  148 1   
   149  145  154 1   
   150  146  147 2   
   151  146  159 1   
   152  148  149 1   
   153  148  155 1   
   154  148  156 1   
   155  149  150 1   
   156  149  157 1   
   157  149  158 1   
   158  150  151 1   
   159  150  152 1   
   160  159  160 1   
   161  159  168 1   
   162  160  161 1   
   163  160  163 1   
   164  160  169 1   
   165  161  162 2   
   166  161  174 1   
   167  163  164 1   
   168  163  170 1   
   169  163  171 1   
   170  164  165 1   
   171  164  172 1   
   172  164  173 1   
   173  165  166 1   
   174  165  167 1   
   175  174  175 1   
   176  174  179 1   
   177  175  176 1   
   178  175  177 1   
   179  175  178 1   
   180  181  182 1   
   181  181  183 1   
   182  184  185 1   
   183  184  186 1   
@<TRIPOS>SUBSTRUCTURE
     1 MOL         1 TEMP              0 ****  ****    0 ROOT
