@<TRIPOS>MOLECULE
MOL
  192   187     1     0     0
SMALL
resp


@<TRIPOS>ATOM
      1 C1         10.9160    5.4440   -3.4520 c3        1 MOL     -0.461548
      2 C2         10.7040    4.1850   -2.5980 c         1 MOL      0.640312
      3 O1         11.0740    3.0460   -2.9330 o         1 MOL     -0.623592
      4 H1         11.1990    6.2760   -2.8080 hc        1 MOL      0.125949
      5 H2         11.7080    5.2620   -4.1790 hc        1 MOL      0.125949
      6 H3          9.9910    5.6890   -3.9760 hc        1 MOL      0.125949
      7 N1         10.3270    4.2860   -1.3370 n         1 MOL     -0.149812
      8 C3         10.3590    3.1940   -0.3320 c3        1 MOL     -0.462614
      9 C4          9.1560    2.2980   -0.6260 c         1 MOL      0.516874
     10 O2          8.0400    2.8700   -0.6250 o         1 MOL     -0.598542
     11 C5         10.3450    3.6280    1.1600 c3        1 MOL      0.113757
     12 C6          9.6120    4.8720    1.4820 c         1 MOL      0.855982
     13 O3          8.7920    5.3550    0.6640 o         1 MOL     -0.769572
     14 O4          9.8980    5.2970    2.6360 o         1 MOL     -0.769572
     15 H4          9.9940    5.1760   -0.9910 hn        1 MOL      0.110756
     16 H5         11.2290    2.5400   -0.4730 h1        1 MOL      0.165986
     17 H6         11.4030    3.7560    1.4110 hc        1 MOL      0.028103
     18 H7          9.9460    2.8340    1.7810 hc        1 MOL      0.028103
     19 N2          9.4550    1.0050   -0.7060 n         1 MOL     -0.303395
     20 C7          8.3480    0.0580   -0.7260 c3        1 MOL     -0.044090
     21 C8          7.7420   -0.0090    0.6870 c         1 MOL      0.637488
     22 O5          8.4310   -0.4090    1.6560 o         1 MOL     -0.541160
     23 C9          8.8260   -1.2850   -1.2880 c3        1 MOL      0.067467
     24 C10         7.6560   -1.9910   -2.0740 c3        1 MOL     -0.358442
     25 C11         8.1160   -3.4390   -2.5070 c3        1 MOL      0.325147
     26 C12         7.0110   -4.1440   -3.2730 c3        1 MOL      0.108733
     27 N3          7.4740   -5.5140   -3.7330 n4        1 MOL     -0.454331
     28 H8         10.4130    0.7060   -0.6490 hn        1 MOL      0.273616
     29 H9          7.5910    0.4920   -1.3780 h1        1 MOL      0.100537
     30 H10         9.2310   -1.9540   -0.5250 hc        1 MOL      0.019823
     31 H11         9.6810   -1.1000   -1.9270 hc        1 MOL      0.019823
     32 H12         7.3420   -1.3270   -2.8830 hc        1 MOL      0.088382
     33 H13         6.8850   -2.1150   -1.3160 hc        1 MOL      0.088382
     34 H14         8.4370   -4.1050   -1.7100 hc        1 MOL     -0.050858
     35 H15         8.9730   -3.3520   -3.1860 hc        1 MOL     -0.050858
     36 H16         6.7290   -3.6020   -4.1680 hx        1 MOL      0.044822
     37 H17         6.2000   -4.1240   -2.5430 hx        1 MOL      0.044822
     38 H18         7.6840   -6.0780   -2.9230 hn        1 MOL      0.329037
     39 H19         6.6970   -5.9290   -4.2230 hn        1 MOL      0.329037
     40 H20         8.2310   -5.5920   -4.4020 hn        1 MOL      0.329037
     41 N4          6.4300    0.3120    0.7400 n         1 MOL     -0.434917
     42 C13         5.5010    0.0120    1.8130 c3        1 MOL      0.004243
     43 C14         4.0320   -0.0290    1.2060 c         1 MOL      0.445571
     44 O6          3.7900    0.6200    0.2100 o         1 MOL     -0.545861
     45 C15         5.5960    1.0710    2.9500 c3        1 MOL     -0.121952
     46 C16         5.9130    2.4410    2.5210 c         1 MOL      0.730276
     47 O7          7.0990    2.8100    2.2910 o         1 MOL     -0.720760
     48 O8          4.9920    3.2540    2.4210 o         1 MOL     -0.720760
     49 H21         6.0140    0.8300   -0.0220 hn        1 MOL      0.260974
     50 H22         5.6930   -0.9740    2.2210 h1        1 MOL      0.092770
     51 H23         6.3650    0.8040    3.6730 hc        1 MOL      0.049137
     52 H24         4.6460    1.0450    3.4790 hc        1 MOL      0.049137
     53 N5          3.0640   -0.8120    1.7210 n         1 MOL     -0.254044
     54 C17         3.2250   -1.7910    2.7310 c3        1 MOL     -0.210629
     55 C18         3.6820   -3.0990    2.1270 c         1 MOL      0.489274
     56 O9          4.0380   -3.1260    0.9170 o         1 MOL     -0.500037
     57 H25         2.2080   -0.8180    1.1880 hn        1 MOL      0.236387
     58 H26         2.2630   -1.9020    3.2330 h1        1 MOL      0.116211
     59 H27         3.9880   -1.4730    3.4320 h1        1 MOL      0.116211
     60 N6          3.7570   -4.1410    2.9600 n         1 MOL     -0.375061
     61 C19         4.1270   -5.5130    2.4650 c3        1 MOL      0.006108
     62 C20         3.2210   -5.9870    1.3410 c         1 MOL      0.346161
     63 O10         3.7650   -6.4930    0.3340 o         1 MOL     -0.555284
     64 C21         4.2850   -6.6020    3.5970 c3        1 MOL     -0.180580
     65 C22         3.1890   -6.6660    4.5890 c         1 MOL      0.721058
     66 O11         1.9940   -6.6210    4.2850 o         1 MOL     -0.692344
     67 O12         3.5000   -6.9270    5.7590 o         1 MOL     -0.692344
     68 H28         3.6600   -3.9760    3.9500 hn        1 MOL      0.272801
     69 H29         5.1170   -5.3730    2.0230 h1        1 MOL      0.080587
     70 H30         5.2830   -6.5570    4.0390 hc        1 MOL      0.064436
     71 H31         4.3080   -7.5400    3.0540 hc        1 MOL      0.064436
     72 N7          1.9600   -5.6430    1.3120 n         1 MOL     -0.129108
     73 C23         0.9990   -5.8790    0.2180 c3        1 MOL     -0.076893
     74 C24         0.7750   -4.7810   -0.7810 c         1 MOL      0.469473
     75 O13         0.0880   -5.0690   -1.7630 o         1 MOL     -0.583449
     76 H32         1.5100   -5.2700    2.1310 hn        1 MOL      0.188847
     77 H33         0.0730   -6.1080    0.7340 h1        1 MOL      0.092256
     78 H34         1.2500   -6.8020   -0.3070 h1        1 MOL      0.092256
     79 N8          1.4710   -3.6600   -0.7070 n         1 MOL     -0.146047
     80 C25         1.3390   -2.6110   -1.6870 c3        1 MOL      0.035110
     81 C26         0.5100   -1.5400   -0.9430 c         1 MOL      0.352285
     82 O14         0.4970   -1.4490    0.3010 o         1 MOL     -0.429197
     83 C27         2.6850   -2.0650   -2.1740 c3        1 MOL      0.426620
     84 C28         3.7260   -3.1170   -2.5910 c3        1 MOL     -0.407279
     85 O15         2.4030   -1.3770   -3.3210 oh        1 MOL     -0.655438
     86 H35         1.8770   -3.4430    0.1960 hn        1 MOL      0.151629
     87 H36         0.7670   -2.9200   -2.5620 h1        1 MOL      0.108214
     88 H37         3.1830   -1.4740   -1.4090 h1        1 MOL     -0.032422
     89 H38         3.0890   -0.7210   -3.4490 ho        1 MOL      0.406424
     90 H39         3.3950   -3.8030   -3.3700 hc        1 MOL      0.092512
     91 H40         4.6160   -2.5730   -2.9070 hc        1 MOL      0.092512
     92 H41         3.9630   -3.7090   -1.7050 hc        1 MOL      0.092512
     93 N9         -0.2430   -0.6490   -1.7140 n         1 MOL     -0.241278
     94 C29        -0.9430    0.4810   -1.1280 c3        1 MOL     -0.258533
     95 C30        -2.4380    0.1250   -0.7440 c         1 MOL      0.482342
     96 O16        -3.1090    0.8330   -0.0040 o         1 MOL     -0.527386
     97 C31        -0.8320    1.8010   -1.9990 c3        1 MOL      0.248651
     98 C32        -1.1540    1.7320   -3.5070 c3        1 MOL      0.069254
     99 C33         0.5910    2.3940   -1.9030 c3        1 MOL     -0.187721
    100 C34        -1.3410    3.0610   -4.3240 c3        1 MOL     -0.227971
    101 H42        -0.1960   -0.6980   -2.7170 hn        1 MOL      0.205980
    102 H43        -0.5530    0.7430   -0.1430 h1        1 MOL      0.174861
    103 H44        -1.4480    2.5890   -1.5660 hc        1 MOL     -0.004940
    104 H45        -2.0950    1.1910   -3.5130 hc        1 MOL     -0.011236
    105 H46        -0.3860    1.1880   -4.0480 hc        1 MOL     -0.011236
    106 H47         0.6600    3.4360   -2.2150 hc        1 MOL      0.023853
    107 H48         0.8950    2.1950   -0.8780 hc        1 MOL      0.023853
    108 H49         1.2700    1.8450   -2.5510 hc        1 MOL      0.023853
    109 H50        -1.5720    2.7710   -5.3390 hc        1 MOL      0.064224
    110 H51        -2.1690    3.6790   -3.9750 hc        1 MOL      0.064224
    111 H52        -0.4070    3.6170   -4.2750 hc        1 MOL      0.064224
    112 N10        -2.9230   -1.0500   -1.1740 n         1 MOL     -0.285890
    113 C35        -4.1600   -1.6170   -0.5500 c3        1 MOL      0.040193
    114 C36        -5.2250   -1.9200   -1.5930 c         1 MOL      0.516976
    115 O17        -4.9490   -2.2600   -2.7180 o         1 MOL     -0.521999
    116 C37        -3.9570   -2.7280    0.4310 c3        1 MOL      0.450939
    117 C38        -3.2630   -3.9370   -0.1860 c3        1 MOL     -0.277467
    118 O18        -3.2160   -2.2500    1.5360 oh        1 MOL     -0.603758
    119 H53        -2.3930   -1.6540   -1.7900 hn        1 MOL      0.192142
    120 H54        -4.6070   -0.8160    0.0490 h1        1 MOL      0.026164
    121 H55        -4.8790   -3.1630    0.8020 h1        1 MOL     -0.057289
    122 H56        -3.8130   -1.6670    2.0200 ho        1 MOL      0.371827
    123 H57        -2.5360   -3.6080   -0.9360 hc        1 MOL      0.071639
    124 H58        -2.7030   -4.4580    0.5900 hc        1 MOL      0.071639
    125 H59        -4.0500   -4.5100   -0.6820 hc        1 MOL      0.071639
    126 N11        -6.4520   -1.8110   -1.1500 n         1 MOL     -0.524692
    127 C39        -7.5340   -2.2000   -2.0100 c3        1 MOL      0.144568
    128 C40        -8.5900   -1.1450   -2.2560 c         1 MOL      0.616855
    129 O19        -9.0540   -0.9730   -3.4140 o         1 MOL     -0.575731
    130 C41        -8.1380   -3.4990   -1.5800 c3        1 MOL      0.308818
    131 C42        -9.1510   -4.0310   -2.5590 c3        1 MOL     -0.528710
    132 O20        -8.6740   -3.4290   -0.3130 oh        1 MOL     -0.660904
    133 H60        -6.6100   -1.5630   -0.1820 hn        1 MOL      0.284229
    134 H61        -7.1120   -2.3990   -2.9930 h1        1 MOL      0.055025
    135 H62        -7.2900   -4.1790   -1.4830 h1        1 MOL      0.030954
    136 H63        -9.1860   -4.2430   -0.2180 ho        1 MOL      0.411547
    137 H64        -8.8830   -3.7270   -3.5760 hc        1 MOL      0.148580
    138 H65        -9.1180   -5.1070   -2.4540 hc        1 MOL      0.148580
    139 H66       -10.0460   -3.5150   -2.2220 hc        1 MOL      0.148580
    140 N12        -9.0110   -0.5170   -1.2240 n         1 MOL     -0.581704
    141 C43       -10.2330    0.2760   -1.0880 c3        1 MOL      0.188501
    142 C44       -10.1320    1.3350    0.0200 c         1 MOL      0.581974
    143 O21        -9.6550    1.0240    1.1100 o         1 MOL     -0.509173
    144 C45       -11.5020   -0.6540   -1.0210 c3        1 MOL     -0.345949
    145 C46       -11.5920   -1.6230    0.1500 c3        1 MOL      0.379353
    146 C47       -13.0250   -1.7850    0.6680 c3        1 MOL     -0.073989
    147 C48       -13.1410   -2.4030    2.0310 c3        1 MOL      0.118096
    148 N13       -14.5380   -2.3130    2.5870 n4        1 MOL     -0.328982
    149 H67        -8.5800   -0.8260   -0.3640 hn        1 MOL      0.306157
    150 H68       -10.3820    0.8250   -2.0250 h1        1 MOL      0.075553
    151 H69       -11.6990   -1.2910   -1.8720 hc        1 MOL      0.086285
    152 H70       -12.3340    0.0550   -0.9980 hc        1 MOL      0.086285
    153 H71       -10.9720   -1.1550    0.9120 hc        1 MOL     -0.074519
    154 H72       -11.1670   -2.6210   -0.0210 hc        1 MOL     -0.074519
    155 H73       -13.5360   -2.3790   -0.0790 hc        1 MOL      0.005616
    156 H74       -13.4410   -0.7810    0.7290 hc        1 MOL      0.005616
    157 H75       -12.4250   -1.9370    2.7000 hx        1 MOL      0.046885
    158 H76       -12.7540   -3.4140    1.9310 hx        1 MOL      0.046885
    159 H77       -14.5820   -2.8260    3.4520 hn        1 MOL      0.259337
    160 H78       -14.7730   -1.3520    2.7720 hn        1 MOL      0.259337
    161 H79       -15.1320   -2.6870    1.8580 hn        1 MOL      0.259337
    162 N14       -10.5490    2.6170   -0.1670 n         1 MOL     -0.566929
    163 C49       -10.5610    3.6090    0.9450 c3        1 MOL      0.265724
    164 C50        -9.1960    4.1350    1.4850 c         1 MOL      0.298354
    165 O22        -9.0900    4.4040    2.6610 o         1 MOL     -0.529999
    166 C51       -11.2590    4.8310    0.3660 c3        1 MOL     -0.329165
    167 C52       -11.5490    5.8940    1.5260 c3        1 MOL     -0.200194
    168 C53       -12.4850    6.9590    1.1000 c         1 MOL      0.743104
    169 O23       -13.7280    6.8780    1.3190 o         1 MOL     -0.664668
    170 O24       -12.0260    8.0150    0.6280 o         1 MOL     -0.664668
    171 H80       -10.8960    2.9240   -1.0620 hn        1 MOL      0.297667
    172 H81       -11.0580    3.2750    1.8560 h1        1 MOL      0.060385
    173 H82       -12.1630    4.4550   -0.1190 hc        1 MOL      0.112304
    174 H83       -10.6660    5.3050   -0.4060 hc        1 MOL      0.112304
    175 H84       -10.6650    6.3970    1.8980 hc        1 MOL      0.080835
    176 H85       -11.9950    5.4160    2.4060 hc        1 MOL      0.080835
    177 N15        -8.1170    4.3360    0.7880 n         1 MOL     -0.214009
    178 C54        -7.8620    4.2330   -0.6470 c3        1 MOL     -0.047361
    179 H86        -8.4590    3.4230   -1.0650 h1        1 MOL      0.051385
    180 H87        -8.1310    5.1720   -1.1320 h1        1 MOL      0.051385
    181 H88        -6.8050    4.0270   -0.8140 h1        1 MOL      0.051385
    182 H89        -7.4150    4.7180    1.4130 hn        1 MOL      0.267380
    183 Ca1         6.2300    4.8100    0.7440 Ca        1 MOL      1.816640
    184 O25         3.6500    6.1240    0.9000 oh        1 MOL     -0.972591
    185 H90         3.1570    6.6860    0.2930 ho        1 MOL      0.465286
    186 H91         3.0620    6.0070    1.6360 ho        1 MOL      0.465286
    187 O26         4.7750    3.2210   -0.8230 oh        1 MOL     -0.972591
    188 H92         4.0320    2.6770   -0.5390 ho        1 MOL      0.465286
    189 H93         4.5370    3.5100   -1.7020 ho        1 MOL      0.465286
    190 O27         6.8050    5.9170    3.0230 oh        1 MOL     -0.972591
    191 H94         6.1080    6.0240    3.6800 ho        1 MOL      0.465286
    192 H95         7.5980    6.2370    3.4550 ho        1 MOL      0.465286
@<TRIPOS>BOND
     1    1    2 1   
     2    1    4 1   
     3    1    5 1   
     4    1    6 1   
     5    2    3 2   
     6    2    7 1   
     7    7    8 1   
     8    7   15 1   
     9    8    9 1   
    10    8   11 1   
    11    8   16 1   
    12    9   10 2   
    13    9   19 1   
    14   11   12 1   
    15   11   17 1   
    16   11   18 1   
    17   12   13 1   
    18   12   14 1   
    19   19   20 1   
    20   19   28 1   
    21   20   21 1   
    22   20   23 1   
    23   20   29 1   
    24   21   22 2   
    25   21   41 1   
    26   23   24 1   
    27   23   30 1   
    28   23   31 1   
    29   24   25 1   
    30   24   32 1   
    31   24   33 1   
    32   25   26 1   
    33   25   34 1   
    34   25   35 1   
    35   26   27 1   
    36   26   36 1   
    37   26   37 1   
    38   27   38 1   
    39   27   39 1   
    40   27   40 1   
    41   41   42 1   
    42   41   49 1   
    43   42   43 1   
    44   42   45 1   
    45   42   50 1   
    46   43   44 2   
    47   43   53 1   
    48   45   46 1   
    49   45   51 1   
    50   45   52 1   
    51   46   47 1   
    52   46   48 1   
    53   53   54 1   
    54   53   57 1   
    55   54   55 1   
    56   54   58 1   
    57   54   59 1   
    58   55   56 2   
    59   55   60 1   
    60   60   61 1   
    61   60   68 1   
    62   61   62 1   
    63   61   64 1   
    64   61   69 1   
    65   62   63 2   
    66   62   72 1   
    67   64   65 1   
    68   64   70 1   
    69   64   71 1   
    70   65   66 1   
    71   65   67 1   
    72   72   73 1   
    73   72   76 1   
    74   73   74 1   
    75   73   77 1   
    76   73   78 1   
    77   74   75 2   
    78   74   79 1   
    79   79   80 1   
    80   79   86 1   
    81   80   81 1   
    82   80   83 1   
    83   80   87 1   
    84   81   82 2   
    85   81   93 1   
    86   83   84 1   
    87   83   85 1   
    88   83   88 1   
    89   84   90 1   
    90   84   91 1   
    91   84   92 1   
    92   85   89 1   
    93   93   94 1   
    94   93  101 1   
    95   94   95 1   
    96   94   97 1   
    97   94  102 1   
    98   95   96 2   
    99   95  112 1   
   100   97   98 1   
   101   97   99 1   
   102   97  103 1   
   103   98  100 1   
   104   98  104 1   
   105   98  105 1   
   106   99  106 1   
   107   99  107 1   
   108   99  108 1   
   109  100  109 1   
   110  100  110 1   
   111  100  111 1   
   112  112  113 1   
   113  112  119 1   
   114  113  114 1   
   115  113  116 1   
   116  113  120 1   
   117  114  115 2   
   118  114  126 1   
   119  116  117 1   
   120  116  118 1   
   121  116  121 1   
   122  117  123 1   
   123  117  124 1   
   124  117  125 1   
   125  118  122 1   
   126  126  127 1   
   127  126  133 1   
   128  127  128 1   
   129  127  130 1   
   130  127  134 1   
   131  128  129 2   
   132  128  140 1   
   133  130  131 1   
   134  130  132 1   
   135  130  135 1   
   136  131  137 1   
   137  131  138 1   
   138  131  139 1   
   139  132  136 1   
   140  140  141 1   
   141  140  149 1   
   142  141  142 1   
   143  141  144 1   
   144  141  150 1   
   145  142  143 2   
   146  142  162 1   
   147  144  145 1   
   148  144  151 1   
   149  144  152 1   
   150  145  146 1   
   151  145  153 1   
   152  145  154 1   
   153  146  147 1   
   154  146  155 1   
   155  146  156 1   
   156  147  148 1   
   157  147  157 1   
   158  147  158 1   
   159  148  159 1   
   160  148  160 1   
   161  148  161 1   
   162  162  163 1   
   163  162  171 1   
   164  163  164 1   
   165  163  166 1   
   166  163  172 1   
   167  164  165 2   
   168  164  177 1   
   169  166  167 1   
   170  166  173 1   
   171  166  174 1   
   172  167  168 1   
   173  167  175 1   
   174  167  176 1   
   175  168  169 1   
   176  168  170 1   
   177  177  178 1   
   178  177  182 1   
   179  178  179 1   
   180  178  180 1   
   181  178  181 1   
   182  184  185 1   
   183  184  186 1   
   184  187  188 1   
   185  187  189 1   
   186  190  191 1   
   187  190  192 1   
@<TRIPOS>SUBSTRUCTURE
     1 MOL         1 TEMP              0 ****  ****    0 ROOT
