@<TRIPOS>MOLECULE
MOL
  189   185     1     0     0
SMALL
resp


@<TRIPOS>ATOM
      1 C1          4.2830    4.5850   -2.5490 c3        1 MOL     -0.272855
      2 C2          4.8680    3.7440   -1.4390 c         1 MOL      0.811563
      3 O1          4.2260    3.2520   -0.5120 o         1 MOL     -0.683907
      4 H1          4.8970    5.4750   -2.6910 hc        1 MOL      0.062588
      5 H2          4.2640    4.0070   -3.4720 hc        1 MOL      0.062588
      6 H3          3.2690    4.8820   -2.2840 hc        1 MOL      0.062588
      7 N1          6.1690    3.4400   -1.6520 n         1 MOL     -0.594611
      8 C3          6.7980    2.2090   -1.2210 c3        1 MOL      0.126874
      9 C4          5.8310    0.9770   -1.2540 c         1 MOL      0.576629
     10 O2          5.3930    0.4530   -0.2480 o         1 MOL     -0.853621
     11 C5          7.7170    2.3040    0.0790 c3        1 MOL     -0.041750
     12 C6          7.1770    3.4230    0.9890 c         1 MOL      0.648769
     13 O3          6.3100    3.1920    1.8870 o         1 MOL     -0.719233
     14 O4          7.6460    4.6010    0.9480 o         1 MOL     -0.719233
     15 H4          6.6160    3.9630   -2.3930 hn        1 MOL      0.299618
     16 H5          7.5700    2.0140   -1.9690 h1        1 MOL      0.046440
     17 H6          8.7270    2.5700   -0.2330 hc        1 MOL      0.016163
     18 H7          7.8240    1.3260    0.5610 hc        1 MOL      0.016163
     19 N2          5.4720    0.5770   -2.4710 n         1 MOL     -0.610486
     20 C7          4.7530   -0.5910   -2.9040 c3        1 MOL      0.448860
     21 C8          5.3860   -1.9440   -2.4850 c         1 MOL      0.214346
     22 O5          5.7680   -2.6710   -3.4050 o         1 MOL     -0.529808
     23 C9          3.2830   -0.5900   -2.5430 c3        1 MOL      0.013706
     24 C10         2.5520   -1.7820   -3.2760 c3        1 MOL      0.393182
     25 C11         2.6730    0.7180   -2.9590 c3        1 MOL     -0.023554
     26 C12         2.8320   -1.9710   -4.7990 c3        1 MOL     -0.641207
     27 H8          5.6920    1.1970   -3.2400 hn        1 MOL      0.281825
     28 H9          4.8700   -0.5760   -3.9830 h1        1 MOL     -0.034756
     29 H10         3.2050   -0.7530   -1.4680 hc        1 MOL      0.055363
     30 H11         1.4790   -1.7460   -3.1070 hc        1 MOL     -0.075927
     31 H12         2.8200   -2.6580   -2.6840 hc        1 MOL     -0.075927
     32 H13         1.6050    0.6130   -3.1310 hc        1 MOL     -0.017903
     33 H14         2.9260    1.5160   -2.2580 hc        1 MOL     -0.017903
     34 H15         3.0280    1.0130   -3.9510 hc        1 MOL     -0.017903
     35 H16         3.8570   -2.2910   -5.0120 hc        1 MOL      0.143907
     36 H17         2.2630   -2.8650   -5.0500 hc        1 MOL      0.143907
     37 H18         2.5780   -1.0200   -5.2550 hc        1 MOL      0.143907
     38 N3          5.5200   -2.1870   -1.1850 n         1 MOL     -0.075693
     39 C13         6.2240   -3.3660   -0.6490 c3        1 MOL      0.019022
     40 C14         5.4010   -4.6550   -0.4790 c         1 MOL      0.558720
     41 O6          5.8130   -5.7270   -0.8490 o         1 MOL     -0.586461
     42 C15         6.9420   -2.9660    0.6430 c3        1 MOL     -0.465134
     43 C16         7.9120   -1.7680    0.5270 c         1 MOL      0.813741
     44 O7          8.6930   -1.6880   -0.4860 o         1 MOL     -0.707951
     45 O8          8.0610   -1.0440    1.5340 o         1 MOL     -0.707951
     46 H19         5.3550   -1.4890   -0.4800 hn        1 MOL      0.402015
     47 H20         6.9430   -3.5880   -1.4350 h1        1 MOL      0.052823
     48 H21         7.5050   -3.8570    0.8960 hc        1 MOL      0.129244
     49 H22         6.1410   -2.9090    1.3840 hc        1 MOL      0.129244
     50 N4          4.1930   -4.6670    0.0900 n         1 MOL     -0.518570
     51 C17         3.4560   -3.6350    0.8380 c3        1 MOL      0.349209
     52 C18         2.1610   -4.2620    1.4630 c         1 MOL      0.432846
     53 O9          1.7800   -5.3330    0.9890 o         1 MOL     -0.571824
     54 H23         3.7890   -5.5980    0.1390 hn        1 MOL      0.301952
     55 H24         3.1800   -2.7340    0.2800 h1        1 MOL     -0.101089
     56 H25         4.0810   -3.3220    1.6800 h1        1 MOL     -0.101089
     57 N5          1.4660   -3.6590    2.4420 n         1 MOL     -0.210509
     58 C19         1.7410   -2.2980    3.0330 c3        1 MOL      0.055682
     59 C20         2.0410   -1.1770    2.0030 c         1 MOL      0.682509
     60 O10         3.1770   -0.8260    1.8570 o         1 MOL     -0.565117
     61 C21         2.8660   -2.4050    4.0660 c3        1 MOL     -0.478297
     62 C22         2.4440   -3.3740    5.1360 c         1 MOL      0.755435
     63 O11         1.4220   -3.1050    5.8290 o         1 MOL     -0.733449
     64 O12         3.0500   -4.4370    5.2390 o         1 MOL     -0.733449
     65 H26         0.5730   -4.0380    2.7320 hn        1 MOL      0.234353
     66 H27         0.8550   -1.9740    3.5620 h1        1 MOL      0.006819
     67 H28         3.0430   -1.4260    4.5200 hc        1 MOL      0.127647
     68 H29         3.7290   -2.7610    3.5100 hc        1 MOL      0.127647
     69 N6          1.1130   -0.7570    1.1820 n         1 MOL     -0.445776
     70 C23        -0.2800   -1.1460    1.0590 c3        1 MOL     -0.071564
     71 C24        -0.4210   -2.2570    0.0340 c         1 MOL      0.298183
     72 O13         0.3870   -2.5300   -0.8680 o         1 MOL     -0.354944
     73 H30         1.3980   -0.0770    0.4890 hn        1 MOL      0.196608
     74 H31        -0.9220   -0.3480    0.7020 h1        1 MOL      0.083699
     75 H32        -0.6810   -1.4910    2.0190 h1        1 MOL      0.083699
     76 N7         -1.5500   -2.9450    0.1090 n         1 MOL     -0.292025
     77 C25        -1.9650   -4.0220   -0.7960 c3        1 MOL     -0.214270
     78 C26        -2.1500   -3.6150   -2.2730 c         1 MOL      0.432772
     79 O14        -2.0890   -4.5350   -3.1480 o         1 MOL     -0.521980
     80 C27        -3.2800   -4.6910   -0.3130 c3        1 MOL     -0.010674
     81 C28        -3.2180   -5.5020    1.0520 c3        1 MOL     -0.189781
     82 C29        -4.4550   -6.1910    1.5370 c         1 MOL      0.594633
     83 N8         -4.4830   -6.6760    2.7610 n         1 MOL     -0.789275
     84 O15        -5.4720   -6.3100    0.8060 o         1 MOL     -0.554169
     85 H33        -2.1420   -2.7500    0.8990 hn        1 MOL      0.241693
     86 H34        -1.1430   -4.7430   -0.8610 h1        1 MOL      0.159833
     87 H35        -3.6320   -5.4090   -1.0460 hc        1 MOL      0.079309
     88 H36        -4.0660   -3.9360   -0.2900 hc        1 MOL      0.079309
     89 H37        -2.6300   -5.0990    1.8770 hc        1 MOL      0.093213
     90 H38        -2.6290   -6.3750    0.7600 hc        1 MOL      0.093213
     91 H39        -3.7430   -6.6030    3.4350 hn        1 MOL      0.362641
     92 H40        -5.4220   -6.9620    3.0240 hn        1 MOL      0.362641
     93 N9         -2.5360   -2.3900   -2.5150 n         1 MOL     -0.166896
     94 C30        -2.9120   -1.9390   -3.8740 c3        1 MOL     -0.205505
     95 C31        -4.4530   -1.4630   -3.8610 c         1 MOL      0.689135
     96 O16        -5.1510   -1.6860   -4.8030 o         1 MOL     -0.569454
     97 C32        -2.0130   -0.8810   -4.4470 c3        1 MOL      0.318745
     98 C33        -0.6680   -1.5090   -4.8780 c3        1 MOL     -0.437445
     99 C34        -1.6170    0.1930   -3.3510 c3        1 MOL     -0.437445
    100 H41        -2.5130   -1.7660   -1.7080 hn        1 MOL      0.206493
    101 H42        -2.9090   -2.7830   -4.5660 h1        1 MOL      0.125461
    102 H43        -2.6050   -0.4360   -5.2520 hc        1 MOL     -0.013133
    103 H44        -0.3150   -2.1490   -4.0740 hc        1 MOL      0.108429
    104 H45        -0.8480   -2.0690   -5.8060 hc        1 MOL      0.108429
    105 H46         0.0920   -0.7370   -5.0340 hc        1 MOL      0.108429
    106 H47        -2.5730    0.6600   -3.0960 hc        1 MOL      0.108429
    107 H48        -0.9740   -0.1760   -2.5500 hc        1 MOL      0.108429
    108 H49        -1.0330    0.9800   -3.8420 hc        1 MOL      0.108429
    109 N10        -4.9290   -0.9170   -2.7340 n         1 MOL     -0.663445
    110 C35        -6.3950   -0.4910   -2.5110 c3        1 MOL      0.398079
    111 C36        -6.5300    0.9140   -1.8690 c         1 MOL      0.298039
    112 O17        -7.3970    1.6790   -2.2770 o         1 MOL     -0.499247
    113 C37        -7.0390   -1.4070   -1.5080 c3        1 MOL     -0.443959
    114 C38        -7.2830   -2.8550   -1.9290 c         1 MOL      0.700237
    115 N11        -7.9440   -3.1520   -3.0450 n         1 MOL     -0.837641
    116 O18        -6.8710   -3.8300   -1.2420 o         1 MOL     -0.534316
    117 H50        -4.3120   -0.8190   -1.9420 hn        1 MOL      0.342110
    118 H51        -6.9780   -0.4560   -3.4300 h1        1 MOL      0.010569
    119 H52        -8.0430   -1.0120   -1.3300 hc        1 MOL      0.120671
    120 H53        -6.4720   -1.4820   -0.5870 hc        1 MOL      0.120671
    121 H54        -8.1270   -2.4160   -3.7190 hn        1 MOL      0.382643
    122 H55        -8.0810   -4.1300   -3.2620 hn        1 MOL      0.382643
    123 N12        -5.7110    1.1560   -0.8430 n         1 MOL     -0.179949
    124 C39        -5.7660    2.3730   -0.0770 c3        1 MOL      0.151520
    125 C40        -4.4300    2.7920    0.5260 c         1 MOL      0.318599
    126 O19        -3.4340    2.1190    0.5730 o         1 MOL     -0.397667
    127 C41        -6.7150    2.2840    1.0450 c3        1 MOL     -0.122607
    128 C42        -6.8830    0.9920    1.7480 ca        1 MOL      0.044083
    129 C43        -8.0630    0.2930    1.5420 ca        1 MOL     -0.141226
    130 C44        -5.8950    0.6090    2.7120 ca        1 MOL     -0.141226
    131 C45        -8.2640   -0.8670    2.2760 ca        1 MOL     -0.275884
    132 C46        -6.1660   -0.5230    3.5070 ca        1 MOL     -0.275884
    133 C47        -7.3640   -1.2100    3.3030 ca        1 MOL      0.388815
    134 O20        -7.6300   -2.3000    4.0960 oh        1 MOL     -0.596123
    135 H56        -4.8470    0.6370   -0.7570 hn        1 MOL      0.113148
    136 H57        -6.0680    3.2090   -0.7100 h1        1 MOL      0.051402
    137 H58        -7.6550    2.5700    0.5650 hc        1 MOL      0.045996
    138 H59        -6.3830    3.0030    1.7880 hc        1 MOL      0.045996
    139 H60        -8.8340    0.5600    0.8260 ha        1 MOL      0.141076
    140 H61        -4.9800    1.1830    2.7850 ha        1 MOL      0.141076
    141 H62        -9.1430   -1.4930    2.1240 ha        1 MOL      0.147518
    142 H63        -5.5030   -0.8200    4.2920 ha        1 MOL      0.147518
    143 H64        -7.0080   -2.5710    4.7710 ho        1 MOL      0.421932
    144 N13        -4.4200    4.0780    0.9330 n         1 MOL     -0.491052
    145 C48        -3.2880    4.8190    1.4380 c3        1 MOL      0.125051
    146 C49        -2.1990    5.2120    0.4000 c         1 MOL      0.458377
    147 O21        -1.6150    6.3140    0.4660 o         1 MOL     -0.505583
    148 C50        -2.6830    4.1510    2.6510 c3        1 MOL     -0.109756
    149 C51        -3.6020    3.8400    3.7860 c3        1 MOL     -0.120774
    150 C52        -4.1650    5.0810    4.4510 c         1 MOL      0.639611
    151 O22        -3.3730    5.6410    5.2270 o         1 MOL     -0.705123
    152 O23        -5.3050    5.5210    4.1590 o         1 MOL     -0.705123
    153 H65        -5.3180    4.5300    0.9540 hn        1 MOL      0.301087
    154 H66        -3.6430    5.7430    1.8970 h1        1 MOL      0.096962
    155 H67        -2.0830    4.9590    3.0610 hc        1 MOL      0.073663
    156 H68        -2.1610    3.2420    2.3790 hc        1 MOL      0.073663
    157 H69        -3.0940    3.2060    4.5100 hc        1 MOL      0.023010
    158 H70        -4.4380    3.2930    3.3560 hc        1 MOL      0.023010
    159 N14        -1.9330    4.3480   -0.6340 n         1 MOL     -0.639971
    160 C53        -0.6960    4.4090   -1.4880 c3        1 MOL     -0.057934
    161 C54        -0.9060    5.3550   -2.7570 c         1 MOL      0.471042
    162 O24         0.0240    5.5570   -3.5440 o         1 MOL     -0.524172
    163 C55        -0.2500    3.0090   -1.8230 c3        1 MOL      0.006583
    164 C56        -0.0080    2.0580   -0.6040 c3        1 MOL      0.071249
    165 C57         1.1600    2.6010    0.3260 c         1 MOL      0.730475
    166 O25         2.0810    1.7920    0.4960 o         1 MOL     -0.653503
    167 O26         1.2470    3.6990    0.9170 o         1 MOL     -0.653503
    168 H71        -2.4040    3.4700   -0.4990 hn        1 MOL      0.336273
    169 H72         0.1220    4.9780   -1.0450 h1        1 MOL      0.177553
    170 H73         0.5890    3.0190   -2.5090 hc        1 MOL      0.005960
    171 H74        -1.0860    2.5130   -2.3150 hc        1 MOL      0.005960
    172 H75         0.2580    1.0440   -0.9020 hc        1 MOL     -0.046195
    173 H76        -0.8900    2.0120    0.0310 hc        1 MOL     -0.046195
    174 N15        -2.1080    5.9570   -2.9420 n         1 MOL     -0.221460
    175 C58        -2.6100    6.7170   -4.1110 c3        1 MOL     -0.290792
    176 H77        -1.9960    7.6040   -4.2590 h1        1 MOL      0.113503
    177 H78        -2.5610    6.0900   -5.0010 h1        1 MOL      0.113503
    178 H79        -3.6430    7.0160   -3.9340 h1        1 MOL      0.113503
    179 H80        -2.7810    5.8440   -2.2030 hn        1 MOL      0.256582
    180 Ca1         4.2470    1.6410    1.8560 Ca        1 MOL      1.737314
    181 O27         3.3270    4.0540    2.3730 oh        1 MOL     -0.913504
    182 H81         2.5420    4.0560    1.8220 ho        1 MOL      0.435718
    183 H82         3.8470    4.7880    2.0420 ho        1 MOL      0.435718
    184 O28         2.9980    1.5330    4.0440 oh        1 MOL     -0.913504
    185 H83         2.1330    1.9370    4.0800 ho        1 MOL      0.435718
    186 H84         3.2610    1.4470    4.9630 ho        1 MOL      0.435718
    187 O29         5.8590   -0.1980    2.8630 oh        1 MOL     -0.913504
    188 H85         6.0240   -0.5690    3.7340 ho        1 MOL      0.435718
    189 H86         6.5970   -0.5020    2.3380 ho        1 MOL      0.435718
@<TRIPOS>BOND
     1    1    2 1   
     2    1    4 1   
     3    1    5 1   
     4    1    6 1   
     5    2    3 2   
     6    2    7 1   
     7    7    8 1   
     8    7   15 1   
     9    8    9 1   
    10    8   11 1   
    11    8   16 1   
    12    9   10 2   
    13    9   19 1   
    14   11   12 1   
    15   11   17 1   
    16   11   18 1   
    17   12   13 1   
    18   12   14 1   
    19   19   20 1   
    20   19   27 1   
    21   20   21 1   
    22   20   23 1   
    23   20   28 1   
    24   21   22 2   
    25   21   38 1   
    26   23   24 1   
    27   23   25 1   
    28   23   29 1   
    29   24   26 1   
    30   24   30 1   
    31   24   31 1   
    32   25   32 1   
    33   25   33 1   
    34   25   34 1   
    35   26   35 1   
    36   26   36 1   
    37   26   37 1   
    38   38   39 1   
    39   38   46 1   
    40   39   40 1   
    41   39   42 1   
    42   39   47 1   
    43   40   41 2   
    44   40   50 1   
    45   42   43 1   
    46   42   48 1   
    47   42   49 1   
    48   43   44 1   
    49   43   45 1   
    50   50   51 1   
    51   50   54 1   
    52   51   52 1   
    53   51   55 1   
    54   51   56 1   
    55   52   53 2   
    56   52   57 1   
    57   57   58 1   
    58   57   65 1   
    59   58   59 1   
    60   58   61 1   
    61   58   66 1   
    62   59   60 2   
    63   59   69 1   
    64   61   62 1   
    65   61   67 1   
    66   61   68 1   
    67   62   63 1   
    68   62   64 1   
    69   69   70 1   
    70   69   73 1   
    71   70   71 1   
    72   70   74 1   
    73   70   75 1   
    74   71   72 2   
    75   71   76 1   
    76   76   77 1   
    77   76   85 1   
    78   77   78 1   
    79   77   80 1   
    80   77   86 1   
    81   78   79 2   
    82   78   93 1   
    83   80   81 1   
    84   80   87 1   
    85   80   88 1   
    86   81   82 1   
    87   81   89 1   
    88   81   90 1   
    89   82   83 1   
    90   82   84 2   
    91   83   91 1   
    92   83   92 1   
    93   93   94 1   
    94   93  100 1   
    95   94   95 1   
    96   94   97 1   
    97   94  101 1   
    98   95   96 2   
    99   95  109 1   
   100   97   98 1   
   101   97   99 1   
   102   97  102 1   
   103   98  103 1   
   104   98  104 1   
   105   98  105 1   
   106   99  106 1   
   107   99  107 1   
   108   99  108 1   
   109  109  110 1   
   110  109  117 1   
   111  110  111 1   
   112  110  113 1   
   113  110  118 1   
   114  111  112 2   
   115  111  123 1   
   116  113  114 1   
   117  113  119 1   
   118  113  120 1   
   119  114  115 1   
   120  114  116 2   
   121  115  121 1   
   122  115  122 1   
   123  123  124 1   
   124  123  135 1   
   125  124  125 1   
   126  124  127 1   
   127  124  136 1   
   128  125  126 2   
   129  125  144 1   
   130  127  128 1   
   131  127  137 1   
   132  127  138 1   
   133  128  129 ar  
   134  128  130 ar  
   135  129  131 ar  
   136  129  139 1   
   137  130  132 ar  
   138  130  140 1   
   139  131  133 ar  
   140  131  141 1   
   141  132  133 ar  
   142  132  142 1   
   143  133  134 1   
   144  134  143 1   
   145  144  145 1   
   146  144  153 1   
   147  145  146 1   
   148  145  148 1   
   149  145  154 1   
   150  146  147 2   
   151  146  159 1   
   152  148  149 1   
   153  148  155 1   
   154  148  156 1   
   155  149  150 1   
   156  149  157 1   
   157  149  158 1   
   158  150  151 1   
   159  150  152 1   
   160  159  160 1   
   161  159  168 1   
   162  160  161 1   
   163  160  163 1   
   164  160  169 1   
   165  161  162 2   
   166  161  174 1   
   167  163  164 1   
   168  163  170 1   
   169  163  171 1   
   170  164  165 1   
   171  164  172 1   
   172  164  173 1   
   173  165  166 1   
   174  165  167 1   
   175  174  175 1   
   176  174  179 1   
   177  175  176 1   
   178  175  177 1   
   179  175  178 1   
   180  181  182 1   
   181  181  183 1   
   182  184  185 1   
   183  184  186 1   
   184  187  188 1   
   185  187  189 1   
@<TRIPOS>SUBSTRUCTURE
     1 MOL         1 TEMP              0 ****  ****    0 ROOT
