@<TRIPOS>MOLECULE
MOL
  184   179     1     0     0
SMALL
resp


@<TRIPOS>ATOM
      1 C1          6.1590    6.2210   -4.2320 c3        1 MOL     -0.262400
      2 C2          6.1310    4.7060   -4.1970 c         1 MOL      0.705857
      3 O1          5.5750    4.0450   -5.0330 o         1 MOL     -0.581774
      4 H1          7.0070    6.5820   -3.6500 hc        1 MOL      0.059283
      5 H2          6.2570    6.5590   -5.2630 hc        1 MOL      0.059283
      6 H3          5.2340    6.6120   -3.8070 hc        1 MOL      0.059283
      7 N1          6.6800    4.0640   -3.1850 n         1 MOL     -0.587953
      8 C3          7.5890    4.5840   -2.1510 c3        1 MOL      0.077682
      9 C4          6.9180    4.5230   -0.8360 c         1 MOL      0.454025
     10 O2          5.7880    3.9820   -0.7110 o         1 MOL     -0.393986
     11 C5          8.9380    3.8580   -2.0920 c3        1 MOL     -0.212498
     12 C6          8.7700    2.3590   -1.8570 c         1 MOL      0.684762
     13 O3          8.4980    1.6180   -2.7820 o         1 MOL     -0.674565
     14 O4          8.9340    1.9050   -0.7280 o         1 MOL     -0.674565
     15 H4          6.5560    3.0640   -3.1470 hn        1 MOL      0.385588
     16 H5          7.8290    5.6540   -2.2360 h1        1 MOL      0.067078
     17 H6          9.4540    4.3310   -1.2670 hc        1 MOL      0.034820
     18 H7          9.5430    3.9960   -2.9960 hc        1 MOL      0.034820
     19 N2          7.5170    5.1780    0.1480 n         1 MOL     -0.510243
     20 C7          6.8350    5.3760    1.4460 c3        1 MOL      0.132621
     21 C8          6.3010    4.0910    2.2850 c         1 MOL      0.388686
     22 O5          5.8300    4.2330    3.4010 o         1 MOL     -0.519413
     23 C9          5.7420    6.4550    1.1720 c3        1 MOL     -0.256211
     24 H8          8.4740    5.5110    0.0820 hn        1 MOL      0.329065
     25 H9          7.5540    5.9370    2.0470 h1        1 MOL      0.050554
     26 H10         5.1380    6.5290    2.0720 hc        1 MOL      0.085053
     27 H11         6.2640    7.4090    1.0490 hc        1 MOL      0.085053
     28 H12         5.0990    6.2590    0.3180 hc        1 MOL      0.085053
     29 N3          6.5060    2.8100    1.8700 n         1 MOL     -0.165610
     30 C10         5.9100    1.5610    2.4400 c3        1 MOL     -0.019376
     31 C11         7.0140    0.4710    2.4430 c         1 MOL      0.447199
     32 O6          7.6860    0.3250    1.4110 o         1 MOL     -0.585392
     33 C12         4.6330    1.1200    1.7240 c3        1 MOL      0.082307
     34 C13         4.4870    0.9910    0.1510 c         1 MOL      0.487567
     35 O7          3.3940    1.0950   -0.4010 o         1 MOL     -0.599447
     36 O8          5.4900    0.6230   -0.5710 o         1 MOL     -0.599447
     37 H13         6.8740    2.7120    0.9360 hn        1 MOL      0.085811
     38 H14         5.7330    1.6500    3.5100 h1        1 MOL      0.047344
     39 H15         3.9010    1.8580    2.0410 hc        1 MOL      0.014813
     40 H16         4.2340    0.2160    2.1920 hc        1 MOL      0.014813
     41 N4          7.2210   -0.3080    3.5180 n         1 MOL     -0.285568
     42 C14         8.0900   -1.4970    3.6010 c3        1 MOL     -0.444231
     43 C15         7.4040   -2.8140    3.1120 c         1 MOL      0.605218
     44 O9          8.1100   -3.7570    2.9140 o         1 MOL     -0.584888
     45 H17         6.5280   -0.1290    4.2290 hn        1 MOL      0.263025
     46 H18         8.1640   -1.7170    4.6650 h1        1 MOL      0.211385
     47 H19         8.9920   -1.3720    2.9980 h1        1 MOL      0.211385
     48 N5          6.1240   -2.9020    3.0540 n         1 MOL     -0.318680
     49 C16         5.4060   -4.0320    2.5880 c3        1 MOL     -0.075015
     50 C17         4.1010   -3.4130    1.9520 c         1 MOL      0.398353
     51 O10         3.5310   -2.4460    2.4770 o         1 MOL     -0.431619
     52 C18         5.0800   -4.9050    3.8100 c3        1 MOL     -0.083912
     53 C19         4.3500   -6.1240    3.2790 c         1 MOL      0.580442
     54 N6          3.0780   -6.3000    3.4770 n         1 MOL     -0.722960
     55 O11         4.9370   -7.0700    2.7150 o         1 MOL     -0.608678
     56 H20         5.6200   -2.1220    3.4590 hn        1 MOL      0.240967
     57 H21         6.0000   -4.4220    1.7610 h1        1 MOL      0.090104
     58 H22         4.3870   -4.4470    4.5270 hc        1 MOL      0.070067
     59 H23         5.9180   -5.2100    4.4330 hc        1 MOL      0.070067
     60 H24         2.4700   -5.5220    3.6960 hn        1 MOL      0.369457
     61 H25         2.7910   -7.0920    2.9190 hn        1 MOL      0.369457
     62 N7          3.6440   -4.0280    0.8620 n         1 MOL     -0.208924
     63 C20         2.5000   -3.5890    0.0940 c3        1 MOL     -0.312365
     64 C21         1.2140   -4.0370    0.8190 c         1 MOL      0.643881
     65 O12         1.2960   -4.6520    1.9090 o         1 MOL     -0.591640
     66 H26         4.2770   -4.6970    0.4350 hn        1 MOL      0.244444
     67 H27         2.5430   -4.1640   -0.8360 h1        1 MOL      0.128914
     68 H28         2.4920   -2.5270   -0.1530 h1        1 MOL      0.128914
     69 N8          0.0530   -3.7570    0.3580 n         1 MOL     -0.417871
     70 C22        -0.2950   -3.1930   -0.9530 c3        1 MOL     -0.086077
     71 C23        -1.7060   -2.6160   -0.9350 c         1 MOL      0.598948
     72 O13        -2.6450   -3.3010   -0.4300 o         1 MOL     -0.518305
     73 C24        -0.3370   -4.2520   -2.0820 c3        1 MOL      0.178183
     74 C25        -0.0880   -3.7050   -3.4770 c3        1 MOL     -0.179140
     75 O14         0.6540   -5.2390   -1.7030 oh        1 MOL     -0.569088
     76 H29        -0.6960   -3.9020    1.0140 hn        1 MOL      0.309631
     77 H30         0.4430   -2.4330   -1.2290 h1        1 MOL      0.104207
     78 H31        -1.2600   -4.8310   -2.0270 h1        1 MOL      0.103962
     79 H32         0.9810   -5.6580   -2.5110 ho        1 MOL      0.360894
     80 H33         0.8950   -3.2250   -3.5560 hc        1 MOL      0.056919
     81 H34        -0.1390   -4.4770   -4.2480 hc        1 MOL      0.056919
     82 H35        -0.8820   -3.0350   -3.8090 hc        1 MOL      0.056919
     83 N9         -1.9190   -1.4250   -1.5140 n         1 MOL     -0.579023
     84 C26        -3.1970   -0.8210   -1.8160 c3        1 MOL      0.045495
     85 C27        -3.6940   -1.4920   -3.1110 c         1 MOL      0.649583
     86 O15        -2.9140   -1.3860   -4.0610 o         1 MOL     -0.642693
     87 C28        -2.9880    0.7010   -1.9380 c3        1 MOL      0.169059
     88 C29        -2.3330    1.2290   -0.6360 c3        1 MOL      0.006328
     89 C30        -4.3320    1.3460   -2.3440 c3        1 MOL     -0.119862
     90 C31        -1.8020    2.6600   -0.7090 c3        1 MOL     -0.362522
     91 H36        -1.1230   -1.0260   -1.9770 hn        1 MOL      0.308401
     92 H37        -3.9110   -0.9820   -1.0050 h1        1 MOL      0.072882
     93 H38        -2.2850    0.8710   -2.7490 hc        1 MOL     -0.021218
     94 H39        -1.4650    0.6010   -0.4140 hc        1 MOL      0.045241
     95 H40        -3.0600    1.1960    0.1770 hc        1 MOL      0.045241
     96 H41        -4.1980    2.4150   -2.5190 hc        1 MOL      0.022444
     97 H42        -4.7030    0.9690   -3.2990 hc        1 MOL      0.022444
     98 H43        -5.0940    1.1020   -1.6050 hc        1 MOL      0.022444
     99 H44        -0.8040    2.7000   -1.1580 hc        1 MOL      0.090233
    100 H45        -2.5270    3.3380   -1.1590 hc        1 MOL      0.090233
    101 H46        -1.6510    3.0750    0.2880 hc        1 MOL      0.090233
    102 N10        -4.8440   -2.1120   -3.1680 n         1 MOL     -0.445861
    103 C32        -5.6640   -2.5740   -2.0100 c3        1 MOL      0.032747
    104 C33        -7.0110   -1.7250   -1.9080 c         1 MOL      0.533517
    105 O16        -7.5180   -0.9510   -2.7690 o         1 MOL     -0.537913
    106 C34        -5.9360   -4.1290   -2.1730 c3        1 MOL     -0.053601
    107 C35        -6.4520   -4.6820   -3.5780 c         1 MOL      0.737647
    108 O17        -6.3630   -3.9110   -4.5770 o         1 MOL     -0.721090
    109 O18        -6.8840   -5.8250   -3.6200 o         1 MOL     -0.721090
    110 H47        -5.1340   -2.3180   -4.1140 hn        1 MOL      0.294224
    111 H48        -5.1150   -2.5380   -1.0710 h1        1 MOL      0.064071
    112 H49        -6.6910   -4.4450   -1.4570 hc        1 MOL     -0.025927
    113 H50        -4.9570   -4.5910   -2.0230 hc        1 MOL     -0.025927
    114 N11        -7.5290   -1.8500   -0.6620 n         1 MOL     -0.574536
    115 C36        -8.6360   -0.9290   -0.3020 c3        1 MOL      0.361072
    116 C37        -8.7810   -0.9800    1.2330 c         1 MOL      0.300116
    117 O19        -8.7870   -2.0440    1.7460 o         1 MOL     -0.517167
    118 C38        -9.9290   -1.3190   -0.9610 c3        1 MOL     -0.154483
    119 C39       -10.8440   -0.2410   -0.8360 ca        1 MOL      0.103992
    120 C40       -11.9120   -0.3540    0.1100 ca        1 MOL     -0.209588
    121 C41       -10.6530    0.9070   -1.6110 ca        1 MOL     -0.209588
    122 C42       -12.7710    0.7630    0.3580 ca        1 MOL     -0.088740
    123 C43       -11.6560    1.9090   -1.4970 ca        1 MOL     -0.088740
    124 C44       -12.6680    1.8290   -0.5310 ca        1 MOL     -0.149694
    125 H51        -7.1370   -2.2850    0.1640 hn        1 MOL      0.339861
    126 H52        -8.3110    0.0530   -0.6500 h1        1 MOL      0.038897
    127 H53       -10.2860   -2.2920   -0.6360 hc        1 MOL      0.075164
    128 H54        -9.7650   -1.4530   -2.0300 hc        1 MOL      0.075164
    129 H55       -12.0770   -1.2350    0.7310 ha        1 MOL      0.141006
    130 H56        -9.8250    0.9740   -2.2970 ha        1 MOL      0.141006
    131 H57       -13.4190    0.6550    1.2100 ha        1 MOL      0.097474
    132 H58       -11.5590    2.8000   -2.1010 ha        1 MOL      0.097474
    133 H59       -13.4180    2.5890   -0.3560 ha        1 MOL      0.086876
    134 N12        -8.9720    0.0960    2.0530 n         1 MOL     -0.004814
    135 C45        -8.8730    1.5090    1.6260 c3        1 MOL     -0.009709
    136 C46        -7.3660    1.8480    1.1940 c         1 MOL      0.322588
    137 O20        -6.5730    1.0230    0.7070 o         1 MOL     -0.485422
    138 C47        -9.3030    2.3260    2.8860 c3        1 MOL      0.000895
    139 C48       -10.2350    1.3980    3.6380 c3        1 MOL     -0.411250
    140 C49        -9.3190    0.1040    3.4470 c3        1 MOL      0.068733
    141 H60        -9.6890    1.7120    0.9170 h1        1 MOL      0.030173
    142 H61        -8.5240    2.4440    3.6370 hc        1 MOL      0.057531
    143 H62        -9.6520    3.3110    2.5720 hc        1 MOL      0.057531
    144 H63       -10.1150    1.6670    4.6850 hc        1 MOL      0.125149
    145 H64       -11.2320    1.3400    3.2010 hc        1 MOL      0.125149
    146 H65        -8.4370    0.1630    4.0920 h1        1 MOL      0.053129
    147 H66        -9.9230   -0.7700    3.6950 h1        1 MOL      0.053129
    148 N13        -6.9890    3.1050    1.4170 n         1 MOL     -0.300152
    149 C50        -5.6940    3.6970    1.0640 c3        1 MOL      0.415283
    150 C51        -5.8690    5.2310    0.7170 c         1 MOL      0.329437
    151 O21        -5.1020    6.0430    1.2650 o         1 MOL     -0.513246
    152 C52        -4.6150    3.2460    2.0800 c3        1 MOL     -0.091007
    153 C53        -5.0200    3.5090    3.5750 c3        1 MOL     -0.051376
    154 C54        -4.1400    2.5590    4.4140 c         1 MOL      0.631585
    155 O22        -4.5610    1.4140    4.7200 o         1 MOL     -0.662193
    156 O23        -2.9690    2.9200    4.7540 o         1 MOL     -0.662193
    157 H67        -7.5520    3.7240    1.9840 hn        1 MOL      0.147738
    158 H68        -5.4490    3.1840    0.1330 h1        1 MOL     -0.030700
    159 H69        -3.7550    3.8580    1.8060 hc        1 MOL      0.043280
    160 H70        -4.4210    2.1840    1.9810 hc        1 MOL      0.043280
    161 H71        -6.0690    3.3040    3.7850 hc        1 MOL     -0.024933
    162 H72        -4.7640    4.5290    3.8550 hc        1 MOL     -0.024933
    163 N14        -6.8830    5.6190   -0.0450 n         1 MOL     -0.358535
    164 C55        -7.5520    4.7760   -1.0620 c3        1 MOL     -0.095021
    165 H73        -7.1950    5.0530   -2.0540 h1        1 MOL      0.068623
    166 H74        -7.3230    3.7280   -0.8720 h1        1 MOL      0.068623
    167 H75        -8.6290    4.9290   -1.0090 h1        1 MOL      0.068623
    168 H76        -7.0630    6.6140   -0.0790 hn        1 MOL      0.273514
    169 Ca1         7.7480   -0.5200   -1.1700 Ca        1 MOL      1.675962
    170 O24         6.0140   -2.5720   -1.0240 oh        1 MOL     -0.785044
    171 H77         6.0490   -3.2860   -1.6580 ho        1 MOL      0.371020
    172 H78         5.1820   -2.1320   -1.1870 ho        1 MOL      0.371020
    173 O25         6.2970   -0.1040   -3.4670 oh        1 MOL     -0.785044
    174 H79         5.4540    0.3300   -3.5520 ho        1 MOL      0.371020
    175 H80         6.1190   -1.0180   -3.7090 ho        1 MOL      0.371020
    176 O26         9.0330   -2.4420    0.3290 oh        1 MOL     -0.785044
    177 H81         9.1310   -2.9030    1.1620 ho        1 MOL      0.371020
    178 H82         9.4450   -3.0180   -0.3140 ho        1 MOL      0.371020
    179 O27         8.3620   -2.8760   -2.5800 oh        1 MOL     -0.785044
    180 H83         9.2640   -3.1560   -2.4080 ho        1 MOL      0.371020
    181 H84         7.8330   -3.6440   -2.3510 ho        1 MOL      0.371020
    182 O28        10.1170   -0.5400   -2.4740 oh        1 MOL     -0.785044
    183 H85        10.8600   -1.0220   -2.8520 ho        1 MOL      0.371020
    184 H86        10.2470    0.3640   -2.7810 ho        1 MOL      0.371020
@<TRIPOS>BOND
     1    1    2 1   
     2    1    4 1   
     3    1    5 1   
     4    1    6 1   
     5    2    3 2   
     6    2    7 1   
     7    7    8 1   
     8    7   15 1   
     9    8    9 1   
    10    8   11 1   
    11    8   16 1   
    12    9   10 2   
    13    9   19 1   
    14   11   12 1   
    15   11   17 1   
    16   11   18 1   
    17   12   13 1   
    18   12   14 1   
    19   19   20 1   
    20   19   24 1   
    21   20   21 1   
    22   20   23 1   
    23   20   25 1   
    24   21   22 2   
    25   21   29 1   
    26   23   26 1   
    27   23   27 1   
    28   23   28 1   
    29   29   30 1   
    30   29   37 1   
    31   30   31 1   
    32   30   33 1   
    33   30   38 1   
    34   31   32 2   
    35   31   41 1   
    36   33   34 1   
    37   33   39 1   
    38   33   40 1   
    39   34   35 1   
    40   34   36 1   
    41   41   42 1   
    42   41   45 1   
    43   42   43 1   
    44   42   46 1   
    45   42   47 1   
    46   43   44 2   
    47   43   48 1   
    48   48   49 1   
    49   48   56 1   
    50   49   50 1   
    51   49   52 1   
    52   49   57 1   
    53   50   51 2   
    54   50   62 1   
    55   52   53 1   
    56   52   58 1   
    57   52   59 1   
    58   53   54 1   
    59   53   55 2   
    60   54   60 1   
    61   54   61 1   
    62   62   63 1   
    63   62   66 1   
    64   63   64 1   
    65   63   67 1   
    66   63   68 1   
    67   64   65 2   
    68   64   69 1   
    69   69   70 1   
    70   69   76 1   
    71   70   71 1   
    72   70   73 1   
    73   70   77 1   
    74   71   72 2   
    75   71   83 1   
    76   73   74 1   
    77   73   75 1   
    78   73   78 1   
    79   74   80 1   
    80   74   81 1   
    81   74   82 1   
    82   75   79 1   
    83   83   84 1   
    84   83   91 1   
    85   84   85 1   
    86   84   87 1   
    87   84   92 1   
    88   85   86 2   
    89   85  102 1   
    90   87   88 1   
    91   87   89 1   
    92   87   93 1   
    93   88   90 1   
    94   88   94 1   
    95   88   95 1   
    96   89   96 1   
    97   89   97 1   
    98   89   98 1   
    99   90   99 1   
   100   90  100 1   
   101   90  101 1   
   102  102  103 1   
   103  102  110 1   
   104  103  104 1   
   105  103  106 1   
   106  103  111 1   
   107  104  105 2   
   108  104  114 1   
   109  106  107 1   
   110  106  112 1   
   111  106  113 1   
   112  107  108 1   
   113  107  109 1   
   114  114  115 1   
   115  114  125 1   
   116  115  116 1   
   117  115  118 1   
   118  115  126 1   
   119  116  117 2   
   120  116  134 1   
   121  118  119 1   
   122  118  127 1   
   123  118  128 1   
   124  119  120 ar  
   125  119  121 ar  
   126  120  122 ar  
   127  120  129 1   
   128  121  123 ar  
   129  121  130 1   
   130  122  124 ar  
   131  122  131 1   
   132  123  124 ar  
   133  123  132 1   
   134  124  133 1   
   135  134  135 1   
   136  134  140 1   
   137  135  136 1   
   138  135  138 1   
   139  135  141 1   
   140  136  137 2   
   141  136  148 1   
   142  138  139 1   
   143  138  142 1   
   144  138  143 1   
   145  139  140 1   
   146  139  144 1   
   147  139  145 1   
   148  140  146 1   
   149  140  147 1   
   150  148  149 1   
   151  148  157 1   
   152  149  150 1   
   153  149  152 1   
   154  149  158 1   
   155  150  151 2   
   156  150  163 1   
   157  152  153 1   
   158  152  159 1   
   159  152  160 1   
   160  153  154 1   
   161  153  161 1   
   162  153  162 1   
   163  154  155 1   
   164  154  156 1   
   165  163  164 1   
   166  163  168 1   
   167  164  165 1   
   168  164  166 1   
   169  164  167 1   
   170  170  171 1   
   171  170  172 1   
   172  173  174 1   
   173  173  175 1   
   174  176  177 1   
   175  176  178 1   
   176  179  180 1   
   177  179  181 1   
   178  182  183 1   
   179  182  184 1   
@<TRIPOS>SUBSTRUCTURE
     1 MOL         1 TEMP              0 ****  ****    0 ROOT
