@<TRIPOS>MOLECULE
MOL
  178   175     1     0     0
SMALL
resp


@<TRIPOS>ATOM
      1 C1         -5.2640    8.2780    1.2780 c3        1 MOL     -0.409288
      2 C2         -6.4150    7.7330    0.3950 c         1 MOL      0.662357
      3 O1         -6.7130    8.3520   -0.6320 o         1 MOL     -0.574240
      4 H1         -5.6780    8.9020    2.0700 hc        1 MOL      0.098530
      5 H2         -4.7180    7.4450    1.7200 hc        1 MOL      0.098530
      6 H3         -4.5860    8.8730    0.6650 hc        1 MOL      0.098530
      7 N1         -7.0730    6.6320    0.7900 n         1 MOL     -0.534523
      8 C3         -8.2500    6.0380    0.1510 c3        1 MOL      0.237195
      9 C4         -7.8350    4.8420   -0.8170 c         1 MOL      0.404812
     10 O2         -8.5940    4.4690   -1.7320 o         1 MOL     -0.491597
     11 C5         -9.3120    5.6890    1.1710 c3        1 MOL     -0.186348
     12 C6        -10.5560    5.1860    0.4580 c         1 MOL      0.760396
     13 O3        -10.9040    4.0400    0.6240 o         1 MOL     -0.738633
     14 O4        -11.1520    6.0030   -0.2350 o         1 MOL     -0.738633
     15 H4         -6.8350    6.3190    1.7200 hn        1 MOL      0.276297
     16 H5         -8.7610    6.8450   -0.3720 h1        1 MOL      0.043155
     17 H6         -9.6850    6.5620    1.7220 hc        1 MOL     -0.010007
     18 H7         -8.8880    4.9900    1.8900 hc        1 MOL     -0.010007
     19 N2         -6.6510    4.3150   -0.5880 n         1 MOL     -0.311859
     20 C7         -6.1300    3.0730   -1.1640 c3        1 MOL      0.052471
     21 C8         -5.0200    2.4100   -0.2760 c         1 MOL      0.625362
     22 O5         -4.2420    3.1020    0.4190 o         1 MOL     -0.555067
     23 C9         -5.5320    3.4330   -2.5570 c3        1 MOL     -0.350511
     24 H8         -6.1490    4.6500    0.2130 hn        1 MOL      0.178971
     25 H9         -7.0180    2.4730   -1.3420 h1        1 MOL      0.100403
     26 H10        -4.9600    2.6370   -3.0460 hc        1 MOL      0.107638
     27 H11        -6.2850    3.8560   -3.2170 hc        1 MOL      0.107638
     28 H12        -4.7910    4.1730   -2.2730 hc        1 MOL      0.107638
     29 N3         -4.8790    1.1100   -0.2540 n         1 MOL     -0.641008
     30 C10        -5.6190    0.1040   -1.0260 c3        1 MOL      0.081167
     31 C11        -5.8680   -1.1250   -0.2220 c         1 MOL      0.561468
     32 O6         -5.0180   -1.4790    0.6060 o         1 MOL     -0.542235
     33 C12        -4.8580   -0.2130   -2.3000 c3        1 MOL      0.027129
     34 C13        -3.2930   -0.4600   -2.2330 c         1 MOL      0.600388
     35 O7         -2.6900   -0.9770   -3.2100 o         1 MOL     -0.693754
     36 O8         -2.6550   -0.2810   -1.1860 o         1 MOL     -0.693754
     37 H13        -3.9810    0.7880    0.0820 hn        1 MOL      0.398457
     38 H14        -6.6240    0.4760   -1.2410 h1        1 MOL      0.008892
     39 H15        -5.1540    0.4250   -3.1350 hc        1 MOL     -0.007448
     40 H16        -5.2500   -1.1890   -2.5810 hc        1 MOL     -0.007448
     41 N4         -6.9140   -1.8820   -0.5740 n         1 MOL     -0.465847
     42 C14        -7.3220   -3.2240   -0.0240 c3        1 MOL      0.138720
     43 C15        -7.2370   -4.2530   -1.1120 c         1 MOL      0.506033
     44 O9         -8.1960   -4.8030   -1.6080 o         1 MOL     -0.544383
     45 H17        -7.4300   -1.4940   -1.3420 hn        1 MOL      0.297131
     46 H18        -8.3380   -3.1710    0.3490 h1        1 MOL      0.024527
     47 H19        -6.5910   -3.4500    0.7610 h1        1 MOL      0.024527
     48 N5         -6.0140   -4.7430   -1.3620 n         1 MOL     -0.478744
     49 C16        -4.6510   -4.4310   -0.9250 c3        1 MOL     -0.006851
     50 C17        -4.2930   -5.2130    0.3760 c         1 MOL      0.529256
     51 O10        -4.2450   -6.4220    0.2400 o         1 MOL     -0.524880
     52 C18        -3.5810   -4.6820   -2.0150 c3        1 MOL     -0.061383
     53 C19        -2.2590   -4.0530   -1.8020 c         1 MOL      0.367260
     54 N6         -1.2190   -4.3230   -2.5380 n         1 MOL     -0.378915
     55 O11        -2.1620   -3.1950   -0.9470 o         1 MOL     -0.473516
     56 H20        -6.0320   -5.4720   -2.0670 hn        1 MOL      0.292705
     57 H21        -4.6400   -3.3600   -0.7320 h1        1 MOL      0.166011
     58 H22        -4.0090   -4.4030   -2.9780 hc        1 MOL      0.050326
     59 H23        -3.3530   -5.7460   -2.1030 hc        1 MOL      0.050326
     60 H24        -1.2890   -4.9800   -3.2940 hn        1 MOL      0.243512
     61 H25        -0.2760   -4.0800   -2.2730 hn        1 MOL      0.243512
     62 N7         -3.9430   -4.5520    1.4910 n         1 MOL     -0.180462
     63 C20        -3.6640   -5.2710    2.6530 c3        1 MOL     -0.250742
     64 C21        -2.1890   -5.7640    2.7730 c         1 MOL      0.531200
     65 O12        -1.8690   -6.6230    3.6240 o         1 MOL     -0.572304
     66 H26        -3.9220   -3.5450    1.4720 hn        1 MOL      0.230472
     67 H27        -4.3390   -6.1230    2.7820 h1        1 MOL      0.101909
     68 H28        -3.8540   -4.5240    3.4340 h1        1 MOL      0.101909
     69 N8         -1.3270   -5.2000    1.9300 n         1 MOL     -0.157125
     70 C22         0.1020   -5.4790    1.8920 c3        1 MOL     -0.097599
     71 C23         0.8560   -4.1300    1.7800 c         1 MOL      0.476251
     72 O13         0.2970   -3.1320    1.4160 o         1 MOL     -0.580425
     73 C24         0.3860   -6.4860    0.8100 c3        1 MOL      0.413963
     74 C25         0.0090   -7.9330    1.2260 c3        1 MOL     -0.490299
     75 O14        -0.2850   -6.2730   -0.3790 oh        1 MOL     -0.578667
     76 H29        -1.7880   -4.5910    1.2660 hn        1 MOL      0.132420
     77 H30         0.5140   -5.9310    2.7980 h1        1 MOL      0.068004
     78 H31         1.4470   -6.3780    0.5830 h1        1 MOL      0.002388
     79 H32         0.3790   -5.9580   -0.9950 ho        1 MOL      0.344720
     80 H33         0.2570   -8.6560    0.4480 hc        1 MOL      0.122230
     81 H34         0.5590   -8.2770    2.1060 hc        1 MOL      0.122230
     82 H35        -1.0330   -7.9560    1.5400 hc        1 MOL      0.122230
     83 N9          2.1690   -4.1190    2.0690 n         1 MOL     -0.351468
     84 C26         3.0070   -2.8620    1.9860 c3        1 MOL      0.286155
     85 C27         3.9690   -2.9340    0.7870 c         1 MOL      0.245257
     86 O15         4.7390   -3.8470    0.7470 o         1 MOL     -0.517111
     87 C28         3.6170   -2.6130    3.4120 c3        1 MOL      0.055610
     88 C29         4.4430   -1.2890    3.4010 c3        1 MOL      0.244569
     89 C30         2.6030   -2.3740    4.5660 c3        1 MOL     -0.319669
     90 C31         3.7280    0.0390    2.9180 c3        1 MOL     -0.233313
     91 H36         2.6300   -4.9930    2.2460 hn        1 MOL      0.229490
     92 H37         2.3450   -2.0270    1.7640 h1        1 MOL     -0.054108
     93 H38         4.3440   -3.3850    3.6520 hc        1 MOL      0.001554
     94 H39         5.3720   -1.5080    2.8630 hc        1 MOL     -0.065408
     95 H40         4.8560   -1.2070    4.4050 hc        1 MOL     -0.065408
     96 H41         1.9510   -3.2300    4.7350 hc        1 MOL      0.075336
     97 H42         3.1650   -2.3160    5.4980 hc        1 MOL      0.075336
     98 H43         2.0800   -1.4260    4.4600 hc        1 MOL      0.075336
     99 H44         4.3340    0.8990    3.2030 hc        1 MOL      0.040449
    100 H45         3.7110   -0.1260    1.8440 hc        1 MOL      0.040449
    101 H46         2.6930    0.1440    3.2390 hc        1 MOL      0.040449
    102 N10         3.8460   -2.0540   -0.2100 n         1 MOL     -0.086650
    103 C32         4.3900   -2.3690   -1.5550 c3        1 MOL     -0.038276
    104 C33         5.4130   -1.2940   -1.9510 c         1 MOL      0.535285
    105 O16         5.9040   -1.2330   -3.0610 o         1 MOL     -0.565718
    106 C34         3.1350   -2.5550   -2.4860 c3        1 MOL     -0.139926
    107 C35         2.1180   -3.5190   -1.8610 c         1 MOL      0.775223
    108 O17         2.3350   -4.7530   -1.8000 o         1 MOL     -0.686892
    109 O18         1.0500   -3.0210   -1.4210 o         1 MOL     -0.686892
    110 H47         3.0880   -1.4020   -0.1150 hn        1 MOL      0.158299
    111 H48         4.9390   -3.3100   -1.6220 h1        1 MOL      0.110530
    112 H49         3.3460   -3.0510   -3.4280 hc        1 MOL      0.033335
    113 H50         2.7640   -1.5770   -2.7940 hc        1 MOL      0.033335
    114 N11         5.8460   -0.4170   -1.0310 n         1 MOL     -0.419448
    115 C36         7.0120    0.5320   -1.2020 c3        1 MOL      0.379875
    116 C37         6.7460    1.7640   -0.3460 c         1 MOL      0.289281
    117 O19         6.3050    1.6240    0.7800 o         1 MOL     -0.487092
    118 C38         8.3280   -0.1270   -0.7610 c3        1 MOL     -0.396439
    119 C39         9.6160    0.6040   -0.9590 ca        1 MOL      0.188920
    120 C40        10.2060    1.4880   -0.0770 ca        1 MOL     -0.185605
    121 C41        10.3790    0.3350   -2.1380 ca        1 MOL     -0.185605
    122 C42        11.4490    2.1380   -0.3250 ca        1 MOL     -0.125253
    123 C43        11.6250    0.9590   -2.3750 ca        1 MOL     -0.125253
    124 C44        12.0830    1.9990   -1.5540 ca        1 MOL     -0.090912
    125 H51         5.4120   -0.4040   -0.1150 hn        1 MOL      0.145407
    126 H52         7.0310    0.7970   -2.2590 h1        1 MOL      0.012114
    127 H53         8.3780   -1.0840   -1.2950 hc        1 MOL      0.138651
    128 H54         8.2390   -0.4130    0.2850 hc        1 MOL      0.138651
    129 H55         9.6960    1.6700    0.8620 ha        1 MOL      0.125177
    130 H56        10.0740   -0.4890   -2.7700 ha        1 MOL      0.125177
    131 H57        11.8540    2.7210    0.4910 ha        1 MOL      0.109509
    132 H58        12.2840    0.7890   -3.2080 ha        1 MOL      0.109509
    133 H59        13.0120    2.5200   -1.7290 ha        1 MOL      0.101731
    134 N12         7.1000    2.9770   -0.8550 n         1 MOL     -0.080712
    135 C45         7.0020    4.3650   -0.2170 c3        1 MOL     -0.006652
    136 C46         5.6660    4.8640    0.4080 c         1 MOL      0.442378
    137 O20         5.4380    6.0480    0.7840 o         1 MOL     -0.540714
    138 C47         7.5500    5.4280   -1.1680 c3        1 MOL     -0.140184
    139 C48         8.4070    4.6000   -2.1600 c3        1 MOL      0.044687
    140 C49         7.5770    3.2710   -2.2160 c3        1 MOL     -0.140908
    141 H60         7.6480    4.2570    0.6590 h1        1 MOL      0.058004
    142 H61         6.7470    5.9550   -1.6710 hc        1 MOL      0.080996
    143 H62         8.1630    6.1910   -0.6740 hc        1 MOL      0.080996
    144 H63         8.4760    5.1540   -3.0950 hc        1 MOL      0.021323
    145 H64         9.4390    4.4230   -1.8590 hc        1 MOL      0.021323
    146 H65         6.6810    3.2650   -2.8360 h1        1 MOL      0.078274
    147 H66         8.2220    2.4670   -2.5440 h1        1 MOL      0.078274
    148 N13         4.7110    3.9300    0.5820 n         1 MOL     -0.267039
    149 C50         3.3540    4.2560    0.9660 c3        1 MOL     -0.229440
    150 C51         3.1980    4.9720    2.3820 c         1 MOL      0.526661
    151 O21         2.1800    5.5200    2.6300 o         1 MOL     -0.524755
    152 C52         2.4940    2.9780    0.9890 c3        1 MOL      0.105699
    153 C53         2.3480    2.2350   -0.3350 c3        1 MOL      0.306719
    154 C54         1.3920    1.0690   -0.2330 c         1 MOL      0.571806
    155 O22         0.1650    1.3050   -0.3680 o         1 MOL     -0.702823
    156 O23         1.7370   -0.0830    0.0190 o         1 MOL     -0.702823
    157 H67         5.0290    2.9760    0.5050 hn        1 MOL      0.240595
    158 H68         2.8830    4.9420    0.2700 h1        1 MOL      0.156368
    159 H69         1.4910    3.1980    1.3530 hc        1 MOL     -0.003780
    160 H70         3.0520    2.2780    1.6040 hc        1 MOL     -0.003780
    161 H71         3.3180    1.9370   -0.7260 hc        1 MOL     -0.113290
    162 H72         1.8860    2.9460   -1.0120 hc        1 MOL     -0.113290
    163 N14         4.2330    4.8590    3.2080 n         1 MOL     -0.176071
    164 C55         4.2710    5.4860    4.5320 c3        1 MOL     -0.343859
    165 H73         3.6560    6.3860    4.5240 h1        1 MOL      0.128527
    166 H74         3.8840    4.7890    5.2750 h1        1 MOL      0.128527
    167 H75         5.2980    5.7510    4.7800 h1        1 MOL      0.128527
    168 H76         5.0430    4.3280    2.9060 hn        1 MOL      0.218672
    169 Ca1        -0.4960   -1.3380   -0.3130 Ca        1 MOL      1.728546
    170 O24        -1.6440    1.0640    1.4380 oh        1 MOL     -0.824192
    171 H77        -1.9180    1.8320    1.9440 ho        1 MOL      0.386591
    172 H78        -0.9230    1.3820    0.9030 ho        1 MOL      0.386591
    173 O25         0.0470   -1.1370   -3.1420 oh        1 MOL     -0.824192
    174 H79        -0.8400   -0.8680   -3.4030 ho        1 MOL      0.386591
    175 H80         0.5290   -0.3150   -3.0750 ho        1 MOL      0.386591
    176 O26        -2.5360   -1.8060    1.4510 oh        1 MOL     -0.824192
    177 H81        -3.4140   -1.7920    1.0750 ho        1 MOL      0.386591
    178 H82        -2.4660   -0.9790    1.9290 ho        1 MOL      0.386591
@<TRIPOS>BOND
     1    1    2 1   
     2    1    4 1   
     3    1    5 1   
     4    1    6 1   
     5    2    3 2   
     6    2    7 1   
     7    7    8 1   
     8    7   15 1   
     9    8    9 1   
    10    8   11 1   
    11    8   16 1   
    12    9   10 2   
    13    9   19 1   
    14   11   12 1   
    15   11   17 1   
    16   11   18 1   
    17   12   13 1   
    18   12   14 1   
    19   19   20 1   
    20   19   24 1   
    21   20   21 1   
    22   20   23 1   
    23   20   25 1   
    24   21   22 2   
    25   21   29 1   
    26   23   26 1   
    27   23   27 1   
    28   23   28 1   
    29   29   30 1   
    30   29   37 1   
    31   30   31 1   
    32   30   33 1   
    33   30   38 1   
    34   31   32 2   
    35   31   41 1   
    36   33   34 1   
    37   33   39 1   
    38   33   40 1   
    39   34   35 1   
    40   34   36 1   
    41   41   42 1   
    42   41   45 1   
    43   42   43 1   
    44   42   46 1   
    45   42   47 1   
    46   43   44 2   
    47   43   48 1   
    48   48   49 1   
    49   48   56 1   
    50   49   50 1   
    51   49   52 1   
    52   49   57 1   
    53   50   51 2   
    54   50   62 1   
    55   52   53 1   
    56   52   58 1   
    57   52   59 1   
    58   53   54 1   
    59   53   55 2   
    60   54   60 1   
    61   54   61 1   
    62   62   63 1   
    63   62   66 1   
    64   63   64 1   
    65   63   67 1   
    66   63   68 1   
    67   64   65 2   
    68   64   69 1   
    69   69   70 1   
    70   69   76 1   
    71   70   71 1   
    72   70   73 1   
    73   70   77 1   
    74   71   72 2   
    75   71   83 1   
    76   73   74 1   
    77   73   75 1   
    78   73   78 1   
    79   74   80 1   
    80   74   81 1   
    81   74   82 1   
    82   75   79 1   
    83   83   84 1   
    84   83   91 1   
    85   84   85 1   
    86   84   87 1   
    87   84   92 1   
    88   85   86 2   
    89   85  102 1   
    90   87   88 1   
    91   87   89 1   
    92   87   93 1   
    93   88   90 1   
    94   88   94 1   
    95   88   95 1   
    96   89   96 1   
    97   89   97 1   
    98   89   98 1   
    99   90   99 1   
   100   90  100 1   
   101   90  101 1   
   102  102  103 1   
   103  102  110 1   
   104  103  104 1   
   105  103  106 1   
   106  103  111 1   
   107  104  105 2   
   108  104  114 1   
   109  106  107 1   
   110  106  112 1   
   111  106  113 1   
   112  107  108 1   
   113  107  109 1   
   114  114  115 1   
   115  114  125 1   
   116  115  116 1   
   117  115  118 1   
   118  115  126 1   
   119  116  117 2   
   120  116  134 1   
   121  118  119 1   
   122  118  127 1   
   123  118  128 1   
   124  119  120 ar  
   125  119  121 ar  
   126  120  122 ar  
   127  120  129 1   
   128  121  123 ar  
   129  121  130 1   
   130  122  124 ar  
   131  122  131 1   
   132  123  124 ar  
   133  123  132 1   
   134  124  133 1   
   135  134  135 1   
   136  134  140 1   
   137  135  136 1   
   138  135  138 1   
   139  135  141 1   
   140  136  137 2   
   141  136  148 1   
   142  138  139 1   
   143  138  142 1   
   144  138  143 1   
   145  139  140 1   
   146  139  144 1   
   147  139  145 1   
   148  140  146 1   
   149  140  147 1   
   150  148  149 1   
   151  148  157 1   
   152  149  150 1   
   153  149  152 1   
   154  149  158 1   
   155  150  151 2   
   156  150  163 1   
   157  152  153 1   
   158  152  159 1   
   159  152  160 1   
   160  153  154 1   
   161  153  161 1   
   162  153  162 1   
   163  154  155 1   
   164  154  156 1   
   165  163  164 1   
   166  163  168 1   
   167  164  165 1   
   168  164  166 1   
   169  164  167 1   
   170  170  171 1   
   171  170  172 1   
   172  173  174 1   
   173  173  175 1   
   174  176  177 1   
   175  176  178 1   
@<TRIPOS>SUBSTRUCTURE
     1 MOL         1 TEMP              0 ****  ****    0 ROOT
