@<TRIPOS>MOLECULE
MOL
  175   173     1     0     0
SMALL
resp


@<TRIPOS>ATOM
      1 C1         -6.3350    7.9580    1.8810 c3        1 MOL     -0.394345
      2 C2         -6.9550    7.1090    0.8060 c         1 MOL      0.707490
      3 O1         -6.8210    7.2130   -0.4240 o         1 MOL     -0.601771
      4 H1         -5.4740    7.4390    2.3020 hc        1 MOL      0.099348
      5 H2         -6.0130    8.9080    1.4540 hc        1 MOL      0.099348
      6 H3         -7.0670    8.1420    2.6670 hc        1 MOL      0.099348
      7 N1         -7.7930    6.1700    1.2900 n         1 MOL     -0.614239
      8 C3         -8.6910    5.3190    0.4860 c3        1 MOL      0.395428
      9 C4         -8.0220    4.0530   -0.1780 c         1 MOL      0.519832
     10 O2         -8.4930    2.9520    0.0580 o         1 MOL     -0.513789
     11 C5         -9.9530    5.0480    1.2360 c3        1 MOL     -0.337424
     12 C6        -11.0610    4.4980    0.2910 c         1 MOL      0.710989
     13 O3        -11.8970    3.6300    0.7300 o         1 MOL     -0.724645
     14 O4        -11.1700    4.9560   -0.8850 o         1 MOL     -0.724645
     15 H4         -7.7940    6.0440    2.2910 hn        1 MOL      0.291854
     16 H5         -8.9910    5.9400   -0.3620 h1        1 MOL     -0.013900
     17 H6        -10.2710    5.9360    1.7800 hc        1 MOL      0.040674
     18 H7         -9.8240    4.2150    1.9360 hc        1 MOL      0.040674
     19 N2         -6.9060    4.2350   -0.8900 n         1 MOL     -0.646339
     20 C7         -5.9700    3.1990   -1.3430 c3        1 MOL      0.256527
     21 C8         -5.1790    2.5140   -0.2240 c         1 MOL      0.584773
     22 O5         -4.7890    3.1510    0.7300 o         1 MOL     -0.552245
     23 C9         -5.0350    3.8990   -2.3320 c3        1 MOL     -0.436995
     24 H8         -6.5970    5.1940   -0.8810 hn        1 MOL      0.334031
     25 H9         -6.5770    2.4200   -1.8200 h1        1 MOL      0.090522
     26 H10        -4.4860    4.5870   -1.6920 hc        1 MOL      0.127714
     27 H11        -4.4130    3.1450   -2.8130 hc        1 MOL      0.127714
     28 H12        -5.5820    4.4170   -3.1150 hc        1 MOL      0.127714
     29 N3         -4.9600    1.1880   -0.2840 n         1 MOL     -0.507025
     30 C10        -5.5120    0.2340   -1.2590 c3        1 MOL      0.054209
     31 C11        -5.6990   -1.1350   -0.5790 c         1 MOL      0.528505
     32 O6         -4.9260   -1.4250    0.3180 o         1 MOL     -0.535376
     33 C12        -4.5370    0.0860   -2.4010 c3        1 MOL     -0.197755
     34 C13        -3.0890   -0.2650   -2.0420 c         1 MOL      0.809190
     35 O7         -2.6560   -1.3850   -2.3530 o         1 MOL     -0.746693
     36 O8         -2.2740    0.5370   -1.4650 o         1 MOL     -0.746693
     37 H13        -4.3440    0.7910    0.4210 hn        1 MOL      0.295415
     38 H14        -6.4840    0.5870   -1.6030 h1        1 MOL      0.017288
     39 H15        -4.5200    0.9890   -3.0090 hc        1 MOL      0.022706
     40 H16        -4.9870   -0.8010   -2.8740 hc        1 MOL      0.022706
     41 N4         -6.6260   -1.9650   -1.0150 n         1 MOL     -0.389607
     42 C14        -7.0060   -3.2730   -0.5850 c3        1 MOL     -0.015162
     43 C15        -6.8000   -4.3890   -1.6640 c         1 MOL      0.556646
     44 O9         -7.7990   -4.8930   -2.1670 o         1 MOL     -0.559293
     45 H17        -7.1200   -1.5760   -1.8170 hn        1 MOL      0.312655
     46 H18        -8.0580   -3.3390   -0.2930 h1        1 MOL      0.076201
     47 H19        -6.5410   -3.5110    0.3710 h1        1 MOL      0.076201
     48 N5         -5.5980   -4.7080   -2.0910 n         1 MOL     -0.525999
     49 C16        -4.2990   -4.2590   -1.5080 c3        1 MOL      0.101487
     50 C17        -4.1820   -4.8570   -0.0530 c         1 MOL      0.428481
     51 O10        -4.2540   -6.1300    0.0830 o         1 MOL     -0.558380
     52 C18        -3.1770   -4.7240   -2.4210 c3        1 MOL     -0.138884
     53 C19        -1.7720   -4.2800   -1.9960 c         1 MOL      0.625162
     54 N6         -0.7030   -4.8670   -2.5730 n         1 MOL     -0.679991
     55 O11        -1.4870   -3.6100   -0.9870 o         1 MOL     -0.713305
     56 H20        -5.5610   -5.5630   -2.6240 hn        1 MOL      0.324823
     57 H21        -4.2900   -3.1690   -1.3890 h1        1 MOL      0.075697
     58 H22        -3.2700   -4.4380   -3.4670 hc        1 MOL      0.066807
     59 H23        -3.2080   -5.8080   -2.4500 hc        1 MOL      0.066807
     60 H24        -0.7730   -5.4720   -3.3770 hn        1 MOL      0.318756
     61 H25         0.2080   -4.8650   -2.1490 hn        1 MOL      0.318756
     62 N7         -4.0690   -4.0930    1.0200 n         1 MOL     -0.165483
     63 C20        -4.0370   -4.5100    2.3680 c3        1 MOL     -0.332763
     64 C21        -2.6180   -4.7510    2.8590 c         1 MOL      0.581681
     65 O12        -2.3910   -5.0680    4.0160 o         1 MOL     -0.567417
     66 H26        -3.9680   -3.0900    0.9090 hn        1 MOL      0.273388
     67 H27        -4.6450   -5.3920    2.5530 h1        1 MOL      0.141392
     68 H28        -4.4320   -3.6910    2.9830 h1        1 MOL      0.141392
     69 N8         -1.6280   -4.6290    1.9580 n         1 MOL     -0.304294
     70 C22        -0.1640   -4.7980    2.1800 c3        1 MOL      0.073750
     71 C23         0.6890   -3.5550    1.9460 c         1 MOL      0.257650
     72 O13         0.4130   -2.6960    1.1290 o         1 MOL     -0.382107
     73 C24         0.4230   -6.1320    1.4800 c3        1 MOL      0.196849
     74 C25        -0.2310   -7.5020    1.8080 c3        1 MOL     -0.403280
     75 O14         0.4150   -6.0130    0.0540 oh        1 MOL     -0.574309
     76 H29        -1.8820   -4.1530    1.1060 hn        1 MOL      0.349952
     77 H30        -0.0110   -4.9380    3.2460 h1        1 MOL      0.040014
     78 H31         1.4940   -6.2680    1.5910 h1        1 MOL      0.038575
     79 H32         0.8600   -6.7720   -0.3210 ho        1 MOL      0.403187
     80 H33        -1.3190   -7.5270    1.6800 hc        1 MOL      0.109713
     81 H34         0.0750   -8.1730    1.0070 hc        1 MOL      0.109713
     82 H35         0.0460   -7.8780    2.7930 hc        1 MOL      0.109713
     83 N9          1.8300   -3.3980    2.6970 n         1 MOL     -0.085562
     84 C26         2.8260   -2.3410    2.4310 c3        1 MOL     -0.047240
     85 C27         3.8040   -2.8970    1.5180 c         1 MOL      0.345868
     86 O15         4.3770   -3.9560    1.8160 o         1 MOL     -0.549258
     87 C28         3.5330   -2.0210    3.7710 c3        1 MOL      0.096991
     88 C29         4.6320   -0.9500    3.4770 c3        1 MOL      0.052058
     89 C30         2.5960   -1.4600    4.9170 c3        1 MOL     -0.200382
     90 C31         5.6800   -0.7040    4.5580 c3        1 MOL     -0.237930
     91 H36         2.1580   -4.1680    3.2680 hn        1 MOL      0.180651
     92 H37         2.3810   -1.4280    2.0240 h1        1 MOL      0.057133
     93 H38         3.9370   -2.9750    4.0980 hc        1 MOL      0.002022
     94 H39         4.1080   -0.0060    3.2760 hc        1 MOL      0.043222
     95 H40         5.2920   -1.4010    2.7400 hc        1 MOL      0.043222
     96 H41         1.6700   -2.0280    4.9020 hc        1 MOL      0.039918
     97 H42         3.0230   -1.4790    5.9160 hc        1 MOL      0.039918
     98 H43         2.4380   -0.3950    4.7350 hc        1 MOL      0.039918
     99 H44         6.2140   -1.6250    4.7940 hc        1 MOL      0.049128
    100 H45         6.4280   -0.0030    4.1850 hc        1 MOL      0.049128
    101 H46         5.2030   -0.3050    5.4420 hc        1 MOL      0.049128
    102 N10         3.8680   -2.3270    0.2540 n         1 MOL     -0.306547
    103 C32         4.6630   -2.9250   -0.8060 c3        1 MOL      0.301414
    104 C33         5.6130   -1.9170   -1.4090 c         1 MOL      0.366213
    105 O16         5.9280   -2.0190   -2.6270 o         1 MOL     -0.510211
    106 C34         3.7130   -3.6140   -1.7800 c3        1 MOL      0.001530
    107 C35         2.5500   -2.6780   -2.2820 c         1 MOL      0.633202
    108 O17         2.8800   -1.7400   -3.0160 o         1 MOL     -0.674669
    109 O18         1.3610   -2.8980   -2.0090 o         1 MOL     -0.674669
    110 H47         3.2180   -1.5610    0.0810 hn        1 MOL      0.193311
    111 H48         5.2700   -3.7590   -0.4490 h1        1 MOL     -0.008440
    112 H49         3.2420   -4.4660   -1.2860 hc        1 MOL     -0.025091
    113 H50         4.3170   -4.0180   -2.5790 hc        1 MOL     -0.025091
    114 N11         6.1300   -0.9040   -0.6170 n         1 MOL     -0.365982
    115 C36         6.9990    0.1810   -1.1470 c3        1 MOL      0.171936
    116 C37         6.5460    1.5040   -0.4900 c         1 MOL      0.550151
    117 O19         6.2750    1.5250    0.6900 o         1 MOL     -0.526212
    118 C38         8.4370   -0.1600   -0.7920 c3        1 MOL     -0.270554
    119 C39         9.3870    0.9650   -1.0840 ca        1 MOL      0.035427
    120 C40         9.6680    1.9460   -0.1180 ca        1 MOL     -0.096700
    121 C41         9.8180    1.2850   -2.3590 ca        1 MOL     -0.096700
    122 C42        10.4100    3.0900   -0.3890 ca        1 MOL     -0.154771
    123 C43        10.6880    2.3180   -2.6690 ca        1 MOL     -0.154771
    124 C44        10.8600    3.3160   -1.6880 ca        1 MOL     -0.094706
    125 H51         5.8660   -0.8210    0.3530 hn        1 MOL      0.144494
    126 H52         6.9220    0.2240   -2.2390 h1        1 MOL      0.044107
    127 H53         8.8290   -1.0850   -1.2110 hc        1 MOL      0.118997
    128 H54         8.5060   -0.3450    0.2820 hc        1 MOL      0.118997
    129 H55         9.3890    1.8770    0.9230 ha        1 MOL      0.099961
    130 H56         9.6290    0.6970   -3.2390 ha        1 MOL      0.099961
    131 H57        10.6970    3.8230    0.3650 ha        1 MOL      0.121822
    132 H58        11.0020    2.3860   -3.6970 ha        1 MOL      0.121822
    133 H59        11.3920    4.2320   -1.8760 ha        1 MOL      0.094956
    134 N12         6.6400    2.6390   -1.2520 n         1 MOL     -0.100703
    135 C45         6.8460    3.9740   -0.7250 c3        1 MOL     -0.010389
    136 C46         5.7200    4.5770    0.0790 c         1 MOL      0.582232
    137 O20         5.8360    5.5700    0.7290 o         1 MOL     -0.575365
    138 C47         7.3430    4.7810   -1.8370 c3        1 MOL     -0.167699
    139 C48         6.8130    4.1680   -3.0600 c3        1 MOL      0.060556
    140 C49         6.7610    2.6880   -2.6950 c3        1 MOL     -0.314303
    141 H60         7.6490    3.8760   -0.0080 h1        1 MOL      0.042216
    142 H61         7.0510    5.8290   -1.7120 hc        1 MOL      0.071207
    143 H62         8.4280    4.7180   -1.8030 hc        1 MOL      0.071207
    144 H63         5.7750    4.4980   -3.1450 hc        1 MOL      0.029026
    145 H64         7.2860    4.4140   -4.0020 hc        1 MOL      0.029026
    146 H65         5.9450    2.1900   -3.2210 h1        1 MOL      0.135268
    147 H66         7.6980    2.2020   -2.9380 h1        1 MOL      0.135268
    148 N13         4.5510    3.9270    0.0210 n         1 MOL     -0.283270
    149 C50         3.2370    4.3190    0.6400 c3        1 MOL     -0.240999
    150 C51         3.3530    4.5220    2.1720 c         1 MOL      0.458713
    151 O21         2.5020    5.1850    2.8200 o         1 MOL     -0.542933
    152 C52         2.2090    3.2620    0.4110 c3        1 MOL     -0.016645
    153 C53         2.4070    1.9230    1.1850 c3        1 MOL      0.189549
    154 C54         1.4710    0.8350    0.5800 c         1 MOL      0.427014
    155 O22         2.0100   -0.1640   -0.0170 o         1 MOL     -0.627781
    156 O23         0.2230    0.9740    0.6250 o         1 MOL     -0.627781
    157 H67         4.5830    2.9600   -0.2660 hn        1 MOL      0.164103
    158 H68         3.0520    5.2420    0.0970 h1        1 MOL      0.161922
    159 H69         2.2410    3.0880   -0.6600 hc        1 MOL      0.055007
    160 H70         1.1660    3.5390    0.6240 hc        1 MOL      0.055007
    161 H71         2.1820    2.0970    2.2380 hc        1 MOL     -0.040014
    162 H72         3.4540    1.6040    1.1190 hc        1 MOL     -0.040014
    163 N14         4.4090    4.0260    2.8300 n         1 MOL     -0.033949
    164 C55         4.7020    4.1630    4.2400 c3        1 MOL     -0.318309
    165 H73         5.7770    4.0790    4.3960 h1        1 MOL      0.114589
    166 H74         4.3600    5.1370    4.5900 h1        1 MOL      0.114589
    167 H75         4.1910    3.3770    4.7960 h1        1 MOL      0.114589
    168 H76         5.0680    3.5730    2.2160 hn        1 MOL      0.143792
    169 Ca1        -0.3490   -1.2310   -0.9310 Ca        1 MOL      1.758734
    170 O24         0.4650   -0.3150   -3.2720 oh        1 MOL     -0.929434
    171 H77         1.3280   -0.6520   -3.5020 ho        1 MOL      0.427249
    172 H78         0.1470    0.1060   -4.0600 ho        1 MOL      0.427249
    173 O25        -2.3190   -1.1730    1.1340 oh        1 MOL     -0.929434
    174 H79        -3.2070   -1.0730    0.7810 ho        1 MOL      0.427249
    175 H80        -2.2210   -0.4220    1.7230 ho        1 MOL      0.427249
@<TRIPOS>BOND
     1    1    2 1   
     2    1    4 1   
     3    1    5 1   
     4    1    6 1   
     5    2    3 2   
     6    2    7 1   
     7    7    8 1   
     8    7   15 1   
     9    8    9 1   
    10    8   11 1   
    11    8   16 1   
    12    9   10 2   
    13    9   19 1   
    14   11   12 1   
    15   11   17 1   
    16   11   18 1   
    17   12   13 1   
    18   12   14 1   
    19   19   20 1   
    20   19   24 1   
    21   20   21 1   
    22   20   23 1   
    23   20   25 1   
    24   21   22 2   
    25   21   29 1   
    26   23   26 1   
    27   23   27 1   
    28   23   28 1   
    29   29   30 1   
    30   29   37 1   
    31   30   31 1   
    32   30   33 1   
    33   30   38 1   
    34   31   32 2   
    35   31   41 1   
    36   33   34 1   
    37   33   39 1   
    38   33   40 1   
    39   34   35 1   
    40   34   36 1   
    41   41   42 1   
    42   41   45 1   
    43   42   43 1   
    44   42   46 1   
    45   42   47 1   
    46   43   44 2   
    47   43   48 1   
    48   48   49 1   
    49   48   56 1   
    50   49   50 1   
    51   49   52 1   
    52   49   57 1   
    53   50   51 2   
    54   50   62 1   
    55   52   53 1   
    56   52   58 1   
    57   52   59 1   
    58   53   54 1   
    59   53   55 2   
    60   54   60 1   
    61   54   61 1   
    62   62   63 1   
    63   62   66 1   
    64   63   64 1   
    65   63   67 1   
    66   63   68 1   
    67   64   65 2   
    68   64   69 1   
    69   69   70 1   
    70   69   76 1   
    71   70   71 1   
    72   70   73 1   
    73   70   77 1   
    74   71   72 2   
    75   71   83 1   
    76   73   74 1   
    77   73   75 1   
    78   73   78 1   
    79   74   80 1   
    80   74   81 1   
    81   74   82 1   
    82   75   79 1   
    83   83   84 1   
    84   83   91 1   
    85   84   85 1   
    86   84   87 1   
    87   84   92 1   
    88   85   86 2   
    89   85  102 1   
    90   87   88 1   
    91   87   89 1   
    92   87   93 1   
    93   88   90 1   
    94   88   94 1   
    95   88   95 1   
    96   89   96 1   
    97   89   97 1   
    98   89   98 1   
    99   90   99 1   
   100   90  100 1   
   101   90  101 1   
   102  102  103 1   
   103  102  110 1   
   104  103  104 1   
   105  103  106 1   
   106  103  111 1   
   107  104  105 2   
   108  104  114 1   
   109  106  107 1   
   110  106  112 1   
   111  106  113 1   
   112  107  108 1   
   113  107  109 1   
   114  114  115 1   
   115  114  125 1   
   116  115  116 1   
   117  115  118 1   
   118  115  126 1   
   119  116  117 2   
   120  116  134 1   
   121  118  119 1   
   122  118  127 1   
   123  118  128 1   
   124  119  120 ar  
   125  119  121 ar  
   126  120  122 ar  
   127  120  129 1   
   128  121  123 ar  
   129  121  130 1   
   130  122  124 ar  
   131  122  131 1   
   132  123  124 ar  
   133  123  132 1   
   134  124  133 1   
   135  134  135 1   
   136  134  140 1   
   137  135  136 1   
   138  135  138 1   
   139  135  141 1   
   140  136  137 2   
   141  136  148 1   
   142  138  139 1   
   143  138  142 1   
   144  138  143 1   
   145  139  140 1   
   146  139  144 1   
   147  139  145 1   
   148  140  146 1   
   149  140  147 1   
   150  148  149 1   
   151  148  157 1   
   152  149  150 1   
   153  149  152 1   
   154  149  158 1   
   155  150  151 2   
   156  150  163 1   
   157  152  153 1   
   158  152  159 1   
   159  152  160 1   
   160  153  154 1   
   161  153  161 1   
   162  153  162 1   
   163  154  155 1   
   164  154  156 1   
   165  163  164 1   
   166  163  168 1   
   167  164  165 1   
   168  164  166 1   
   169  164  167 1   
   170  170  171 1   
   171  170  172 1   
   172  173  174 1   
   173  173  175 1   
@<TRIPOS>SUBSTRUCTURE
     1 MOL         1 TEMP              0 ****  ****    0 ROOT
