@<TRIPOS>MOLECULE
MOL
  201   193     1     0     0
SMALL
resp


@<TRIPOS>ATOM
      1 C1         -3.2130   -4.2640    2.1420 c3        1 MOL     -0.156757
      2 C2         -2.0910   -4.2970    1.1120 c         1 MOL      0.603347
      3 O1         -1.6320   -3.2260    0.6730 o         1 MOL     -0.508194
      4 H1         -3.7780   -3.3380    2.0340 hc        1 MOL      0.008212
      5 H2         -3.8760   -5.1140    1.9840 hc        1 MOL      0.008212
      6 H3         -2.7880   -4.3140    3.1440 hc        1 MOL      0.008212
      7 N1         -1.7900   -5.4760    0.5560 n         1 MOL     -0.417103
      8 C3         -0.8780   -5.6020   -0.5950 c3        1 MOL      0.203651
      9 C4          0.6250   -5.1720   -0.3340 c         1 MOL      0.593998
     10 O2          1.3080   -4.6170   -1.1880 o         1 MOL     -0.538587
     11 C5         -1.4580   -5.0240   -1.8970 c3        1 MOL     -0.756828
     12 C6         -3.0350   -4.8430   -1.9000 c         1 MOL      0.858222
     13 O3         -3.7360   -5.8850   -1.7890 o         1 MOL     -0.662088
     14 O4         -3.5150   -3.7050   -2.1090 o         1 MOL     -0.662088
     15 H4         -2.2170   -6.2850    0.9860 hn        1 MOL      0.268219
     16 H5         -0.8650   -6.6880   -0.7200 h1        1 MOL      0.028097
     17 H6         -1.0820   -5.5730   -2.7520 hc        1 MOL      0.218845
     18 H7         -1.0240   -4.0330   -2.0480 hc        1 MOL      0.218845
     19 N2          1.0530   -5.3610    0.9150 n         1 MOL     -0.305530
     20 C7          2.4530   -5.1210    1.4150 c3        1 MOL     -0.366761
     21 C8          3.3860   -6.1720    0.8560 c         1 MOL      0.512714
     22 O5          2.9280   -7.2720    0.8600 o         1 MOL     -0.556279
     23 C9          2.6210   -4.7800    2.9040 c3        1 MOL      0.329698
     24 C10         2.6860   -5.9840    3.7570 c3        1 MOL      0.053866
     25 C11         1.5530   -3.7520    3.2900 c3        1 MOL     -0.337511
     26 C12         2.8770   -5.8120    5.3250 c3        1 MOL     -0.300414
     27 H8          0.4550   -5.9930    1.4200 hn        1 MOL      0.171361
     28 H9          2.6440   -4.2220    0.8310 h1        1 MOL      0.182681
     29 H10         3.6030   -4.3180    3.0060 hc        1 MOL     -0.003423
     30 H11         3.4900   -6.6330    3.4090 hc        1 MOL      0.022631
     31 H12         1.7760   -6.5680    3.5860 hc        1 MOL      0.022631
     32 H13         1.8230   -3.3860    4.2910 hc        1 MOL      0.073337
     33 H14         1.5350   -2.8720    2.6560 hc        1 MOL      0.073337
     34 H15         0.5640   -4.2040    3.2660 hc        1 MOL      0.073337
     35 H16         2.7670   -6.8040    5.7710 hc        1 MOL      0.060902
     36 H17         3.8570   -5.3380    5.4060 hc        1 MOL      0.060902
     37 H18         2.1990   -5.0840    5.7850 hc        1 MOL      0.060902
     38 N3          4.6020   -5.8670    0.3840 n         1 MOL     -0.392317
     39 C13         5.3950   -4.6050    0.4420 c3        1 MOL      0.120092
     40 C14         5.0100   -3.5870   -0.6730 c         1 MOL      0.343788
     41 O6          4.9060   -2.3950   -0.4590 o         1 MOL     -0.526457
     42 C15         6.9280   -4.8950    0.3570 c3        1 MOL     -0.101582
     43 C16         7.4810   -5.8060   -0.7230 c         1 MOL      0.642773
     44 O7          8.7480   -5.8550   -0.8910 o         1 MOL     -0.691101
     45 O8          6.7200   -6.3320   -1.5910 o         1 MOL     -0.691101
     46 H19         5.1380   -6.6530    0.0350 hn        1 MOL      0.249239
     47 H20         5.3120   -4.0790    1.3920 h1        1 MOL      0.001784
     48 H21         7.1670   -5.5180    1.2090 hc        1 MOL      0.013269
     49 H22         7.5350   -3.9840    0.4330 hc        1 MOL      0.013269
     50 N4          4.7600   -4.0750   -1.9040 n         1 MOL      0.035114
     51 C17         4.4190   -3.2890   -2.9890 c3        1 MOL     -0.422755
     52 C18         5.5820   -2.3820   -3.4440 c         1 MOL      0.591753
     53 O9          6.6830   -2.8030   -3.8250 o         1 MOL     -0.521924
     54 H23         4.9370   -5.0580   -2.0620 hn        1 MOL      0.194432
     55 H24         3.5810   -2.6460   -2.7270 h1        1 MOL      0.148018
     56 H25         4.1990   -3.9410   -3.8300 h1        1 MOL      0.148018
     57 N5          5.3570   -1.0370   -3.2240 n         1 MOL     -0.467801
     58 C19         6.2700   -0.0020   -3.5720 c3        1 MOL      0.061844
     59 C20         7.1890    0.3490   -2.3800 c         1 MOL      0.362204
     60 O10         8.1630    1.0440   -2.6190 o         1 MOL     -0.532591
     61 C21         5.4570    1.2500   -4.0130 c3        1 MOL     -0.076859
     62 C22         4.2150    1.6400   -3.2420 c         1 MOL      0.781137
     63 O11         4.2530    2.3860   -2.2440 o         1 MOL     -0.708739
     64 O12         3.1430    1.2900   -3.8070 o         1 MOL     -0.708739
     65 H26         4.4480   -0.7030   -2.9580 hn        1 MOL      0.265166
     66 H27         7.0180   -0.2330   -4.3390 h1        1 MOL      0.076981
     67 H28         5.1120    1.0050   -5.0250 hc        1 MOL      0.001807
     68 H29         6.1510    2.0850   -4.1120 hc        1 MOL      0.001807
     69 N6          6.8850   -0.0960   -1.1470 n         1 MOL      0.015631
     70 C23         7.5080    0.1430    0.1380 c3        1 MOL     -0.407951
     71 C24         7.3480    1.5870    0.6480 c         1 MOL      0.654024
     72 O13         7.7770    1.9150    1.7650 o         1 MOL     -0.648111
     73 H30         6.1150   -0.7460   -1.1600 hn        1 MOL      0.186781
     74 H31         8.5520   -0.1150   -0.0570 h1        1 MOL      0.152727
     75 H32         6.9220   -0.4690    0.8350 h1        1 MOL      0.152727
     76 N7          6.6000    2.3170   -0.1160 n         1 MOL      0.026116
     77 C25         6.2410    3.7600    0.0350 c3        1 MOL      0.027548
     78 C26         5.7370    4.2440    1.4150 c         1 MOL      0.609170
     79 O14         6.0410    5.3710    1.8170 o         1 MOL     -0.539926
     80 C27         7.2550    4.7030   -0.5990 c3        1 MOL      0.088041
     81 C28         7.8150    4.2910   -1.9940 c3        1 MOL      0.154416
     82 C29         8.3940    5.4610   -2.7510 c         1 MOL      0.492696
     83 N8          8.9980    5.2260   -3.9410 n         1 MOL     -0.726273
     84 O15         8.0650    6.5860   -2.5480 o         1 MOL     -0.509959
     85 H33         6.4360    1.8520   -0.9940 hn        1 MOL     -0.189035
     86 H34         5.3570    3.8580   -0.5960 h1        1 MOL      0.122372
     87 H35         8.0750    4.7880    0.1170 hc        1 MOL     -0.054894
     88 H36         6.7660    5.6720   -0.6880 hc        1 MOL     -0.054894
     89 H37         7.0500    3.7930   -2.5970 hc        1 MOL     -0.023958
     90 H38         8.6060    3.5670   -1.8200 hc        1 MOL     -0.023958
     91 H39         9.3050    4.3150   -4.2580 hn        1 MOL      0.317494
     92 H40         9.3610    6.0400   -4.4230 hn        1 MOL      0.317494
     93 N9          5.0300    3.4590    2.1870 n         1 MOL     -0.587063
     94 C30         4.6230    3.7760    3.5700 c3        1 MOL      0.027212
     95 C31         3.1140    3.6750    3.7120 c         1 MOL      0.530055
     96 O16         2.5270    4.3190    4.5850 o         1 MOL     -0.581515
     97 C32         5.3000    2.9300    4.6940 c3        1 MOL      0.386090
     98 C33         5.0870    1.4510    4.3680 c3        1 MOL     -0.374744
     99 C34         6.8080    3.1500    4.8360 c3        1 MOL     -0.374744
    100 H41         4.8660    2.5250    1.8260 hn        1 MOL      0.217816
    101 H42         4.8000    4.8320    3.7920 h1        1 MOL      0.071583
    102 H43         4.8360    3.1860    5.6510 hc        1 MOL     -0.052574
    103 H44         5.6760    1.1440    3.5080 hc        1 MOL      0.080952
    104 H45         5.4460    0.8690    5.2190 hc        1 MOL      0.080952
    105 H46         4.0320    1.2980    4.1450 hc        1 MOL      0.080952
    106 H47         7.0560    2.6320    5.7590 hc        1 MOL      0.080952
    107 H48         7.4240    2.7590    4.0290 hc        1 MOL      0.080952
    108 H49         7.0040    4.2050    5.0000 hc        1 MOL      0.080952
    109 N10         2.4840    2.9060    2.8380 n         1 MOL     -0.324458
    110 C35         1.0480    2.8290    2.6360 c3        1 MOL      0.243244
    111 C36         0.6570    3.3260    1.1620 c         1 MOL      0.461969
    112 O17         1.5300    3.8250    0.4580 o         1 MOL     -0.513364
    113 C37         0.5450    1.3820    2.9100 c3        1 MOL     -0.409621
    114 C38         1.2020    0.6240    4.1210 c         1 MOL      0.528528
    115 N11         2.1190   -0.2980    3.8300 n         1 MOL     -0.666298
    116 O18         1.1430    1.0470    5.2890 o         1 MOL     -0.528692
    117 H50         3.0200    2.4170    2.1410 hn        1 MOL      0.279252
    118 H51         0.5110    3.5170    3.2930 h1        1 MOL      0.050097
    119 H52         0.7800    0.7610    2.0370 hc        1 MOL      0.149618
    120 H53        -0.5300    1.4260    3.0580 hc        1 MOL      0.149618
    121 H54         2.3470   -0.6390    2.9100 hn        1 MOL      0.332692
    122 H55         2.5250   -0.6960    4.6630 hn        1 MOL      0.332692
    123 N12        -0.5980    3.2340    0.8310 n         1 MOL     -0.479119
    124 C39        -1.2350    3.8500   -0.3660 c3        1 MOL      0.161916
    125 C40        -2.8310    4.0670   -0.1000 c         1 MOL      0.544238
    126 O19        -3.3780    3.4470    0.8080 o         1 MOL     -0.514663
    127 C41        -0.8830    2.9900   -1.6370 c3        1 MOL     -0.178523
    128 C42        -1.8620    1.8340   -1.9920 ca        1 MOL      0.026685
    129 C43        -1.6210    0.6020   -1.4320 ca        1 MOL     -0.094164
    130 C44        -2.9960    1.9750   -2.8270 ca        1 MOL     -0.094164
    131 C45        -2.4670   -0.5210   -1.6130 ca        1 MOL     -0.246336
    132 C46        -3.8090    0.8810   -3.1220 ca        1 MOL     -0.246336
    133 C47        -3.5610   -0.3660   -2.5060 ca        1 MOL      0.248360
    134 O20        -4.4020   -1.3560   -2.7700 oh        1 MOL     -0.473445
    135 H56        -1.2580    2.6700    1.3540 hn        1 MOL      0.231608
    136 H57        -0.8000    4.8310   -0.5190 h1        1 MOL      0.078366
    137 H58         0.1010    2.5700   -1.4190 hc        1 MOL      0.090848
    138 H59        -0.8070    3.7300   -2.4230 hc        1 MOL      0.090848
    139 H60        -0.7660    0.4370   -0.7960 ha        1 MOL      0.110074
    140 H61        -3.1800    2.9390   -3.2890 ha        1 MOL      0.110074
    141 H62        -2.2660   -1.4310   -1.0650 ha        1 MOL      0.117485
    142 H63        -4.7380    0.9420   -3.6800 ha        1 MOL      0.117485
    143 H64        -4.0760   -2.1650   -2.3780 ho        1 MOL      0.423843
    144 N13        -3.4410    5.0440   -0.7680 n         1 MOL     -0.755346
    145 C48        -4.7860    5.5750   -0.5510 c3        1 MOL      0.529741
    146 C49        -5.7570    5.1550   -1.6710 c         1 MOL      0.470193
    147 O21        -5.7780    5.8650   -2.6810 o         1 MOL     -0.568663
    148 C50        -4.7890    7.1740   -0.5110 c3        1 MOL     -0.107372
    149 C51        -6.1780    7.7500   -0.2170 c3        1 MOL     -0.216362
    150 C52        -6.0240    9.2380    0.0260 c         1 MOL      0.696355
    151 O22        -5.7120   10.0330   -0.8820 o         1 MOL     -0.657054
    152 O23        -6.2900    9.6970    1.1900 o         1 MOL     -0.657054
    153 H65        -2.8350    5.4550   -1.4620 hn        1 MOL      0.332215
    154 H66        -5.2190    5.1970    0.3710 h1        1 MOL     -0.067577
    155 H67        -4.4600    7.5590   -1.4720 hc        1 MOL      0.039856
    156 H68        -4.0890    7.4530    0.2870 hc        1 MOL      0.039856
    157 H69        -6.5490    7.2710    0.6930 hc        1 MOL      0.055894
    158 H70        -6.8920    7.5820   -1.0330 hc        1 MOL      0.055894
    159 N14        -6.4690    4.0700   -1.5510 n         1 MOL     -0.470217
    160 C53        -6.4990    3.0460   -0.5500 c3        1 MOL      0.027602
    161 C54        -7.0650    3.5840    0.7200 c         1 MOL      0.453579
    162 O24        -8.1160    4.2250    0.6950 o         1 MOL     -0.534819
    163 C55        -7.2690    1.7720   -1.1550 c3        1 MOL      0.116184
    164 C56        -7.5330    0.7550   -0.1210 c3        1 MOL     -0.459268
    165 C57        -8.4280   -0.3770   -0.6450 c         1 MOL      0.647543
    166 O25        -9.3640   -0.1190   -1.4050 o         1 MOL     -0.622395
    167 O26        -8.0920   -1.5290   -0.3510 o         1 MOL     -0.622395
    168 H71        -7.0530    3.9660   -2.3700 hn        1 MOL      0.287776
    169 H72        -5.5030    2.7150   -0.2860 h1        1 MOL      0.024992
    170 H73        -6.6110    1.3400   -1.9040 hc        1 MOL      0.034156
    171 H74        -8.1350    2.0530   -1.7510 hc        1 MOL      0.034156
    172 H75        -7.8240    1.0550    0.8850 hc        1 MOL      0.105805
    173 H76        -6.6630    0.1500    0.1170 hc        1 MOL      0.105805
    174 N15        -6.2540    3.3970    1.8180 n         1 MOL     -0.121043
    175 C58        -6.5540    3.6690    3.2210 c3        1 MOL     -0.255832
    176 H77        -7.2610    4.4950    3.2870 h1        1 MOL      0.096181
    177 H78        -6.9910    2.7810    3.6780 h1        1 MOL      0.096181
    178 H79        -5.6350    3.9330    3.7440 h1        1 MOL      0.096181
    179 H80        -5.4180    2.8690    1.6230 hn        1 MOL      0.201447
    180 Ca1        -7.7640   -3.9560    0.2500 Ca        1 MOL      1.694034
    181 O27        -8.8900   -6.3760    0.6880 oh        1 MOL     -0.797983
    182 H81        -9.7870   -6.6370    0.9060 ho        1 MOL      0.364862
    183 H82        -8.4080   -7.2060    0.6310 ho        1 MOL      0.364862
    184 O28        -5.3880   -2.8300   -0.3900 oh        1 MOL     -0.797983
    185 H83        -5.6620   -2.1750   -1.0490 ho        1 MOL      0.364862
    186 H84        -4.6300   -3.2570   -0.7830 ho        1 MOL      0.364862
    187 O29        -9.9510   -4.0860   -1.1820 oh        1 MOL     -0.797983
    188 H85       -10.4990   -3.3230   -1.0020 ho        1 MOL      0.364862
    189 H86        -9.5660   -3.9080   -2.0330 ho        1 MOL      0.364862
    190 O30        -7.7190   -2.6330    2.5820 oh        1 MOL     -0.797983
    191 H87        -8.0430   -1.7500    2.7600 ho        1 MOL      0.364862
    192 H88        -8.2290   -3.1990    3.1670 ho        1 MOL      0.364862
    193 O31        -6.2370   -5.9200   -0.9610 oh        1 MOL     -0.797983
    194 H89        -6.7330   -6.6310   -1.3620 ho        1 MOL      0.364862
    195 H90        -5.3940   -5.9370   -1.4110 ho        1 MOL      0.364862
    196 O32        -7.4800   -3.4590   -2.5570 oh        1 MOL     -0.797983
    197 H91        -6.7360   -3.6320   -3.1320 ho        1 MOL      0.364862
    198 H92        -7.9510   -2.7330   -2.9810 ho        1 MOL      0.364862
    199 O33       -10.0720   -3.7200    1.6540 oh        1 MOL     -0.797983
    200 H93       -10.9900   -3.4630    1.6060 ho        1 MOL      0.364862
    201 H94       -10.0270   -4.2860    2.4340 ho        1 MOL      0.364862
@<TRIPOS>BOND
     1    1    2 1   
     2    1    4 1   
     3    1    5 1   
     4    1    6 1   
     5    2    3 2   
     6    2    7 1   
     7    7    8 1   
     8    7   15 1   
     9    8    9 1   
    10    8   11 1   
    11    8   16 1   
    12    9   10 2   
    13    9   19 1   
    14   11   12 1   
    15   11   17 1   
    16   11   18 1   
    17   12   13 1   
    18   12   14 1   
    19   19   20 1   
    20   19   27 1   
    21   20   21 1   
    22   20   23 1   
    23   20   28 1   
    24   21   22 2   
    25   21   38 1   
    26   23   24 1   
    27   23   25 1   
    28   23   29 1   
    29   24   26 1   
    30   24   30 1   
    31   24   31 1   
    32   25   32 1   
    33   25   33 1   
    34   25   34 1   
    35   26   35 1   
    36   26   36 1   
    37   26   37 1   
    38   38   39 1   
    39   38   46 1   
    40   39   40 1   
    41   39   42 1   
    42   39   47 1   
    43   40   41 2   
    44   40   50 1   
    45   42   43 1   
    46   42   48 1   
    47   42   49 1   
    48   43   44 1   
    49   43   45 1   
    50   50   51 1   
    51   50   54 1   
    52   51   52 1   
    53   51   55 1   
    54   51   56 1   
    55   52   53 2   
    56   52   57 1   
    57   57   58 1   
    58   57   65 1   
    59   58   59 1   
    60   58   61 1   
    61   58   66 1   
    62   59   60 2   
    63   59   69 1   
    64   61   62 1   
    65   61   67 1   
    66   61   68 1   
    67   62   63 1   
    68   62   64 1   
    69   69   70 1   
    70   69   73 1   
    71   70   71 1   
    72   70   74 1   
    73   70   75 1   
    74   71   72 2   
    75   71   76 1   
    76   76   77 1   
    77   76   85 1   
    78   77   78 1   
    79   77   80 1   
    80   77   86 1   
    81   78   79 2   
    82   78   93 1   
    83   80   81 1   
    84   80   87 1   
    85   80   88 1   
    86   81   82 1   
    87   81   89 1   
    88   81   90 1   
    89   82   83 1   
    90   82   84 2   
    91   83   91 1   
    92   83   92 1   
    93   93   94 1   
    94   93  100 1   
    95   94   95 1   
    96   94   97 1   
    97   94  101 1   
    98   95   96 2   
    99   95  109 1   
   100   97   98 1   
   101   97   99 1   
   102   97  102 1   
   103   98  103 1   
   104   98  104 1   
   105   98  105 1   
   106   99  106 1   
   107   99  107 1   
   108   99  108 1   
   109  109  110 1   
   110  109  117 1   
   111  110  111 1   
   112  110  113 1   
   113  110  118 1   
   114  111  112 2   
   115  111  123 1   
   116  113  114 1   
   117  113  119 1   
   118  113  120 1   
   119  114  115 1   
   120  114  116 2   
   121  115  121 1   
   122  115  122 1   
   123  123  124 1   
   124  123  135 1   
   125  124  125 1   
   126  124  127 1   
   127  124  136 1   
   128  125  126 2   
   129  125  144 1   
   130  127  128 1   
   131  127  137 1   
   132  127  138 1   
   133  128  129 ar  
   134  128  130 ar  
   135  129  131 ar  
   136  129  139 1   
   137  130  132 ar  
   138  130  140 1   
   139  131  133 ar  
   140  131  141 1   
   141  132  133 ar  
   142  132  142 1   
   143  133  134 1   
   144  134  143 1   
   145  144  145 1   
   146  144  153 1   
   147  145  146 1   
   148  145  148 1   
   149  145  154 1   
   150  146  147 2   
   151  146  159 1   
   152  148  149 1   
   153  148  155 1   
   154  148  156 1   
   155  149  150 1   
   156  149  157 1   
   157  149  158 1   
   158  150  151 1   
   159  150  152 1   
   160  159  160 1   
   161  159  168 1   
   162  160  161 1   
   163  160  163 1   
   164  160  169 1   
   165  161  162 2   
   166  161  174 1   
   167  163  164 1   
   168  163  170 1   
   169  163  171 1   
   170  164  165 1   
   171  164  172 1   
   172  164  173 1   
   173  165  166 1   
   174  165  167 1   
   175  174  175 1   
   176  174  179 1   
   177  175  176 1   
   178  175  177 1   
   179  175  178 1   
   180  181  182 1   
   181  181  183 1   
   182  184  185 1   
   183  184  186 1   
   184  187  188 1   
   185  187  189 1   
   186  190  191 1   
   187  190  192 1   
   188  193  194 1   
   189  193  195 1   
   190  196  197 1   
   191  196  198 1   
   192  199  200 1   
   193  199  201 1   
@<TRIPOS>SUBSTRUCTURE
     1 MOL         1 TEMP              0 ****  ****    0 ROOT
