@<TRIPOS>MOLECULE
MOL
  181   177     1     0     0
SMALL
resp


@<TRIPOS>ATOM
      1 C1          4.9440   -1.1010    4.2540 c3        1 MOL     -0.363664
      2 C2          6.2390   -0.5990    3.5350 c         1 MOL      0.747001
      3 O1          6.2650    0.4880    2.9290 o         1 MOL     -0.614367
      4 H1          5.2120   -1.8420    5.0080 hc        1 MOL      0.089737
      5 H2          4.4450   -0.2590    4.7340 hc        1 MOL      0.089737
      6 H3          4.2740   -1.5520    3.5230 hc        1 MOL      0.089737
      7 N1          7.3310   -1.3890    3.5180 n         1 MOL     -0.715221
      8 C3          8.5890   -0.9230    2.8610 c3        1 MOL      0.250824
      9 C4          8.7810   -1.6980    1.5260 c         1 MOL      0.587051
     10 O2          8.6580   -2.8740    1.4490 o         1 MOL     -0.567971
     11 C5          9.8200   -1.0620    3.7570 c3        1 MOL     -0.111635
     12 C6         11.0520   -0.3350    3.1400 c         1 MOL      0.593597
     13 O3         10.7640    0.6460    2.3930 o         1 MOL     -0.681637
     14 O4         12.2100   -0.4300    3.6400 o         1 MOL     -0.681637
     15 H4          7.3530   -2.1800    4.1450 hn        1 MOL      0.345890
     16 H5          8.4180    0.1240    2.6040 h1        1 MOL      0.050532
     17 H6          9.9660   -2.1310    3.9360 hc        1 MOL     -0.003567
     18 H7          9.6330   -0.7940    4.7980 hc        1 MOL     -0.003567
     19 N2          9.0920   -0.9870    0.4540 n         1 MOL     -0.575136
     20 C7          9.0990   -1.5870   -0.9150 c3        1 MOL      0.317993
     21 C8          7.6910   -1.8180   -1.5280 c         1 MOL      0.268020
     22 O5          7.5000   -2.0760   -2.7410 o         1 MOL     -0.492547
     23 C9          9.8650   -0.5760   -1.7540 c3        1 MOL     -0.428429
     24 H8          9.2420    0.0040    0.5370 hn        1 MOL      0.276430
     25 H9          9.6290   -2.5410   -0.9010 h1        1 MOL      0.073374
     26 H10         9.3080    0.3570   -1.8480 hc        1 MOL      0.114860
     27 H11        10.8280   -0.4010   -1.2850 hc        1 MOL      0.114860
     28 H12        10.1210   -0.9620   -2.7400 hc        1 MOL      0.114860
     29 N3          6.5710   -1.6900   -0.7940 n         1 MOL     -0.426546
     30 C10         5.1310   -1.9140   -1.2340 c3        1 MOL      0.217908
     31 C11         4.7150   -1.1660   -2.5490 c         1 MOL      0.367291
     32 O6          3.9250   -1.6680   -3.3060 o         1 MOL     -0.452207
     33 C12         4.9340   -3.4970   -1.2790 c3        1 MOL      0.115572
     34 C13         3.4510   -3.8930   -1.2510 c         1 MOL      0.476313
     35 O7          3.0730   -4.9960   -1.6510 o         1 MOL     -0.645749
     36 O8          2.6240   -3.1800   -0.6660 o         1 MOL     -0.645749
     37 H13         6.6900   -1.5340    0.2060 hn        1 MOL      0.272413
     38 H14         4.5530   -1.5040   -0.4070 h1        1 MOL      0.002250
     39 H15         5.4170   -3.9360   -0.4190 hc        1 MOL     -0.010700
     40 H16         5.3970   -3.9280   -2.1720 hc        1 MOL     -0.010700
     41 N4          5.3360    0.0190   -2.7980 n         1 MOL     -0.223044
     42 C14         5.2090    0.5860   -4.1070 c3        1 MOL     -0.142975
     43 C15         3.7810    1.1030   -4.3450 c         1 MOL      0.476285
     44 O9          3.2650    0.9330   -5.4510 o         1 MOL     -0.539301
     45 H17         5.9510    0.4610   -2.1360 hn        1 MOL      0.255401
     46 H18         5.3930   -0.2150   -4.8280 h1        1 MOL      0.099688
     47 H19         5.9010    1.4120   -4.2670 h1        1 MOL      0.099688
     48 N5          3.2020    1.8130   -3.3380 n         1 MOL     -0.335949
     49 C16         1.9720    2.6080   -3.5210 c3        1 MOL      0.139829
     50 C17         2.1180    4.0360   -2.9500 c         1 MOL      0.403731
     51 O10         2.8770    4.1350   -1.9610 o         1 MOL     -0.467304
     52 C18         0.7560    1.7480   -3.0470 c3        1 MOL     -0.150627
     53 C19        -0.6640    2.4460   -3.2340 c         1 MOL      0.598752
     54 N6         -1.2960    2.7370   -2.0870 n         1 MOL     -0.665217
     55 O11        -1.1520    2.7150   -4.3310 o         1 MOL     -0.576181
     56 H20         3.7660    1.8990   -2.4980 hn        1 MOL      0.195734
     57 H21         1.7360    2.6610   -4.5840 h1        1 MOL      0.033958
     58 H22         0.8390    1.4150   -2.0130 hc        1 MOL      0.079511
     59 H23         0.7180    0.8490   -3.6630 hc        1 MOL      0.079511
     60 H24        -0.8140    2.7810   -1.2080 hn        1 MOL      0.313417
     61 H25        -2.0820    3.3630   -2.2270 hn        1 MOL      0.313417
     62 N7          1.3400    5.0590   -3.4140 n         1 MOL     -0.467777
     63 C20         1.3860    6.3160   -2.6330 c3        1 MOL      0.145039
     64 C21         0.1570    6.5100   -1.7350 c         1 MOL      0.478320
     65 O12        -0.9410    6.2090   -2.2040 o         1 MOL     -0.482490
     66 H26         0.6950    4.9200   -4.1790 hn        1 MOL      0.313796
     67 H27         1.4770    7.2140   -3.2530 h1        1 MOL      0.024031
     68 H28         2.2680    6.3420   -1.9870 h1        1 MOL      0.024031
     69 N8          0.3190    7.0770   -0.5290 n         1 MOL     -0.443718
     70 C22        -0.7620    7.3830    0.4310 c3        1 MOL     -0.183671
     71 C23        -1.6790    6.2370    1.0180 c         1 MOL      0.519562
     72 O13        -2.8720    6.3440    1.3090 o         1 MOL     -0.544316
     73 C24        -0.3510    8.3940    1.5430 c3        1 MOL      0.404223
     74 C25         0.6510    7.8600    2.5580 c3        1 MOL     -0.288425
     75 O14         0.0840    9.6110    0.8970 oh        1 MOL     -0.625108
     76 H29         1.2730    7.2920   -0.2480 hn        1 MOL      0.279348
     77 H30        -1.4960    7.9620   -0.1360 h1        1 MOL      0.135444
     78 H31        -1.3130    8.6710    1.9850 h1        1 MOL      0.049466
     79 H32         0.8020    9.4110    0.2980 ho        1 MOL      0.369630
     80 H33         0.2070    7.0130    3.0790 hc        1 MOL      0.073968
     81 H34         1.4320    7.3680    1.9850 hc        1 MOL      0.073968
     82 H35         1.0710    8.5790    3.2530 hc        1 MOL      0.073968
     83 N9         -1.0700    5.0750    1.2900 n         1 MOL     -0.431500
     84 C26        -1.7430    3.9460    1.9640 c3        1 MOL      0.349444
     85 C27        -1.3220    2.5910    1.3330 c         1 MOL      0.339049
     86 O15        -0.3790    2.4610    0.5610 o         1 MOL     -0.476369
     87 C28        -1.5110    3.9890    3.5220 c3        1 MOL      0.111099
     88 C29        -0.0520    4.1030    3.9340 c3        1 MOL     -0.229303
     89 C30        -2.2080    5.1320    4.2610 c3        1 MOL     -0.286291
     90 C31         0.8750    2.8940    3.8020 c3        1 MOL     -0.057374
     91 H36        -0.0550    5.1000    1.2950 hn        1 MOL      0.274745
     92 H37        -2.8270    3.9930    1.8510 h1        1 MOL      0.024491
     93 H38        -1.9430    3.0600    3.8950 hc        1 MOL      0.009587
     94 H39         0.0120    4.2500    5.0160 hc        1 MOL      0.071429
     95 H40         0.4040    4.8840    3.3270 hc        1 MOL      0.071429
     96 H41        -3.2760    4.9480    4.1730 hc        1 MOL      0.066055
     97 H42        -1.8560    5.1940    5.2870 hc        1 MOL      0.066055
     98 H43        -1.8840    6.0650    3.7970 hc        1 MOL      0.066055
     99 H44         0.1800    2.0780    4.0350 hc        1 MOL      0.037442
    100 H45         1.2730    2.8650    2.7880 hc        1 MOL      0.037442
    101 H46         1.6560    2.9790    4.5520 hc        1 MOL      0.037442
    102 N10        -2.2060    1.5870    1.4230 n         1 MOL     -0.575234
    103 C32        -2.1330    0.3470    0.6230 c3        1 MOL      0.406433
    104 C33        -3.5270   -0.0690    0.1630 c         1 MOL      0.577827
    105 O16        -3.8310   -1.2440    0.0250 o         1 MOL     -0.489592
    106 C34        -1.1910   -0.7020    1.2470 c3        1 MOL     -0.073298
    107 C35        -0.8140   -1.8020    0.3030 c         1 MOL      0.725469
    108 O17        -1.0560   -1.7210   -0.9220 o         1 MOL     -0.770320
    109 O18        -0.0730   -2.6960    0.7090 o         1 MOL     -0.770320
    110 H47        -2.7930    1.5900    2.2400 hn        1 MOL      0.261567
    111 H48        -1.6800    0.6840   -0.3110 h1        1 MOL     -0.038102
    112 H49        -1.7360   -1.1530    2.0720 hc        1 MOL      0.015050
    113 H50        -0.2520   -0.2270    1.5280 hc        1 MOL      0.015050
    114 N11        -4.4630    0.9010   -0.1110 n         1 MOL     -0.666308
    115 C36        -5.7940    0.4670   -0.5990 c3        1 MOL      0.396395
    116 C37        -6.4840   -0.5020    0.3520 c         1 MOL      0.214814
    117 O19        -6.4710   -0.1230    1.5590 o         1 MOL     -0.526394
    118 C38        -6.6730    1.7270   -0.8800 c3        1 MOL     -0.300523
    119 C39        -8.1080    1.5630   -1.2150 ca        1 MOL      0.081252
    120 C40        -8.5010    1.1080   -2.5290 ca        1 MOL     -0.161070
    121 C41        -9.0290    1.4680   -0.1350 ca        1 MOL     -0.161070
    122 C42        -9.8290    0.6840   -2.7570 ca        1 MOL     -0.134141
    123 C43       -10.3520    1.1080   -0.4340 ca        1 MOL     -0.134141
    124 C44       -10.7890    0.7680   -1.7060 ca        1 MOL     -0.095016
    125 H51        -4.2900    1.8890    0.0350 hn        1 MOL      0.311171
    126 H52        -5.6670   -0.1460   -1.5000 h1        1 MOL     -0.022305
    127 H53        -6.2300    2.3070   -1.6870 hc        1 MOL      0.114155
    128 H54        -6.7520    2.3750   -0.0060 hc        1 MOL      0.114155
    129 H55        -7.8230    1.0810   -3.3630 ha        1 MOL      0.141074
    130 H56        -8.6910    1.5710    0.8870 ha        1 MOL      0.141074
    131 H57       -10.1700    0.3270   -3.7210 ha        1 MOL      0.111288
    132 H58       -11.0250    0.9130    0.3870 ha        1 MOL      0.111288
    133 H59       -11.8260    0.4800   -1.8320 ha        1 MOL      0.102775
    134 N12        -7.1020   -1.6270   -0.0790 n         1 MOL      0.058597
    135 C45        -7.8020   -2.5660    0.8280 c3        1 MOL      0.016277
    136 C46        -6.9080   -3.2230    1.9280 c         1 MOL      0.291718
    137 O20        -7.3730   -3.8530    2.8940 o         1 MOL     -0.499405
    138 C47        -8.3560   -3.5950   -0.1530 c3        1 MOL      0.009047
    139 C48        -8.4940   -2.9700   -1.5140 c3        1 MOL     -0.022784
    140 C49        -7.2690   -2.0260   -1.4630 c3        1 MOL      0.024948
    141 H60        -8.6160   -2.0430    1.3280 h1        1 MOL      0.077174
    142 H61        -7.7020   -4.4700   -0.1190 hc        1 MOL      0.013937
    143 H62        -9.3780   -3.8660    0.1150 hc        1 MOL      0.013937
    144 H63        -8.4990   -3.6370   -2.3790 hc        1 MOL      0.014990
    145 H64        -9.3600   -2.3040   -1.5070 hc        1 MOL      0.014990
    146 H65        -6.4380   -2.6730   -1.7380 h1        1 MOL      0.016204
    147 H66        -7.3740   -1.1790   -2.1450 h1        1 MOL      0.016204
    148 N13        -5.5640   -3.0910    1.8180 n         1 MOL     -0.185365
    149 C50        -4.6470   -3.9690    2.5720 c3        1 MOL     -0.182450
    150 C51        -4.1910   -3.4220    3.9900 c         1 MOL      0.434879
    151 O21        -3.8550   -4.1470    4.9110 o         1 MOL     -0.528073
    152 C52        -3.4770   -4.3000    1.6700 c3        1 MOL      0.156149
    153 C53        -3.9890   -5.1040    0.4120 c3        1 MOL     -0.201108
    154 C54        -2.6670   -5.6580   -0.2580 c         1 MOL      0.567030
    155 O22        -2.1260   -4.9100   -1.1000 o         1 MOL     -0.666177
    156 O23        -2.3390   -6.8460    0.0470 o         1 MOL     -0.666177
    157 H67        -5.2350   -2.6000    0.9970 hn        1 MOL      0.181127
    158 H68        -5.0980   -4.9540    2.7470 h1        1 MOL      0.147523
    159 H69        -2.8240   -5.0130    2.1710 hc        1 MOL     -0.005721
    160 H70        -3.0220   -3.3720    1.3270 hc        1 MOL     -0.005721
    161 H71        -4.4130   -4.4540   -0.3650 hc        1 MOL      0.051968
    162 H72        -4.6280   -5.9160    0.7710 hc        1 MOL      0.051968
    163 N14        -4.1750   -2.0880    4.1950 n         1 MOL     -0.129333
    164 C55        -3.7420   -1.3450    5.4210 c3        1 MOL     -0.371953
    165 H73        -4.0610   -0.3050    5.3480 h1        1 MOL      0.135163
    166 H74        -4.1920   -1.8020    6.3010 h1        1 MOL      0.135163
    167 H75        -2.6550   -1.3850    5.5060 h1        1 MOL      0.135163
    168 H76        -4.4410   -1.5870    3.3590 hn        1 MOL      0.183715
    169 Ca1         0.2530   -4.0840   -1.4490 Ca        1 MOL      1.774123
    170 O24         1.5920   -2.6480   -3.4340 oh        1 MOL     -0.866784
    171 H77         1.1020   -2.5730   -4.2600 ho        1 MOL      0.417831
    172 H78         2.4400   -2.2620   -3.6170 ho        1 MOL      0.417831
    173 O25        -1.1730   -3.4610   -3.5770 oh        1 MOL     -0.866784
    174 H79        -1.3390   -2.5110   -3.5130 ho        1 MOL      0.417831
    175 H80        -1.6020   -3.7150   -4.3920 ho        1 MOL      0.417831
    176 O26         0.5450   -6.3600   -2.6970 oh        1 MOL     -0.866784
    177 H81         1.0940   -7.1340   -2.5950 ho        1 MOL      0.417831
    178 H82        -0.3400   -6.6960   -2.8560 ho        1 MOL      0.417831
    179 O27         0.4530   -5.5610    0.9090 oh        1 MOL     -0.866784
    180 H83         0.4910   -4.9010    1.6010 ho        1 MOL      0.417831
    181 H84         0.2390   -6.3840    1.3580 ho        1 MOL      0.417831
@<TRIPOS>BOND
     1    1    2 1   
     2    1    4 1   
     3    1    5 1   
     4    1    6 1   
     5    2    3 2   
     6    2    7 1   
     7    7    8 1   
     8    7   15 1   
     9    8    9 1   
    10    8   11 1   
    11    8   16 1   
    12    9   10 2   
    13    9   19 1   
    14   11   12 1   
    15   11   17 1   
    16   11   18 1   
    17   12   13 1   
    18   12   14 1   
    19   19   20 1   
    20   19   24 1   
    21   20   21 1   
    22   20   23 1   
    23   20   25 1   
    24   21   22 2   
    25   21   29 1   
    26   23   26 1   
    27   23   27 1   
    28   23   28 1   
    29   29   30 1   
    30   29   37 1   
    31   30   31 1   
    32   30   33 1   
    33   30   38 1   
    34   31   32 2   
    35   31   41 1   
    36   33   34 1   
    37   33   39 1   
    38   33   40 1   
    39   34   35 1   
    40   34   36 1   
    41   41   42 1   
    42   41   45 1   
    43   42   43 1   
    44   42   46 1   
    45   42   47 1   
    46   43   44 2   
    47   43   48 1   
    48   48   49 1   
    49   48   56 1   
    50   49   50 1   
    51   49   52 1   
    52   49   57 1   
    53   50   51 2   
    54   50   62 1   
    55   52   53 1   
    56   52   58 1   
    57   52   59 1   
    58   53   54 1   
    59   53   55 2   
    60   54   60 1   
    61   54   61 1   
    62   62   63 1   
    63   62   66 1   
    64   63   64 1   
    65   63   67 1   
    66   63   68 1   
    67   64   65 2   
    68   64   69 1   
    69   69   70 1   
    70   69   76 1   
    71   70   71 1   
    72   70   73 1   
    73   70   77 1   
    74   71   72 2   
    75   71   83 1   
    76   73   74 1   
    77   73   75 1   
    78   73   78 1   
    79   74   80 1   
    80   74   81 1   
    81   74   82 1   
    82   75   79 1   
    83   83   84 1   
    84   83   91 1   
    85   84   85 1   
    86   84   87 1   
    87   84   92 1   
    88   85   86 2   
    89   85  102 1   
    90   87   88 1   
    91   87   89 1   
    92   87   93 1   
    93   88   90 1   
    94   88   94 1   
    95   88   95 1   
    96   89   96 1   
    97   89   97 1   
    98   89   98 1   
    99   90   99 1   
   100   90  100 1   
   101   90  101 1   
   102  102  103 1   
   103  102  110 1   
   104  103  104 1   
   105  103  106 1   
   106  103  111 1   
   107  104  105 2   
   108  104  114 1   
   109  106  107 1   
   110  106  112 1   
   111  106  113 1   
   112  107  108 1   
   113  107  109 1   
   114  114  115 1   
   115  114  125 1   
   116  115  116 1   
   117  115  118 1   
   118  115  126 1   
   119  116  117 2   
   120  116  134 1   
   121  118  119 1   
   122  118  127 1   
   123  118  128 1   
   124  119  120 ar  
   125  119  121 ar  
   126  120  122 ar  
   127  120  129 1   
   128  121  123 ar  
   129  121  130 1   
   130  122  124 ar  
   131  122  131 1   
   132  123  124 ar  
   133  123  132 1   
   134  124  133 1   
   135  134  135 1   
   136  134  140 1   
   137  135  136 1   
   138  135  138 1   
   139  135  141 1   
   140  136  137 2   
   141  136  148 1   
   142  138  139 1   
   143  138  142 1   
   144  138  143 1   
   145  139  140 1   
   146  139  144 1   
   147  139  145 1   
   148  140  146 1   
   149  140  147 1   
   150  148  149 1   
   151  148  157 1   
   152  149  150 1   
   153  149  152 1   
   154  149  158 1   
   155  150  151 2   
   156  150  163 1   
   157  152  153 1   
   158  152  159 1   
   159  152  160 1   
   160  153  154 1   
   161  153  161 1   
   162  153  162 1   
   163  154  155 1   
   164  154  156 1   
   165  163  164 1   
   166  163  168 1   
   167  164  165 1   
   168  164  166 1   
   169  164  167 1   
   170  170  171 1   
   171  170  172 1   
   172  173  174 1   
   173  173  175 1   
   174  176  177 1   
   175  176  178 1   
   176  179  180 1   
   177  179  181 1   
@<TRIPOS>SUBSTRUCTURE
     1 MOL         1 TEMP              0 ****  ****    0 ROOT
