@<TRIPOS>MOLECULE
MOL
  198   191     1     0     0
SMALL
resp


@<TRIPOS>ATOM
      1 C1         -3.3890    4.4860   -2.1110 c3        1 MOL      0.061331
      2 C2         -2.4070    4.6080   -0.9310 c         1 MOL      0.487083
      3 O1         -1.8960    3.5200   -0.5330 o         1 MOL     -0.501772
      4 H1         -3.1150    5.2020   -2.8850 hc        1 MOL     -0.042023
      5 H2         -3.3450    3.4760   -2.5180 hc        1 MOL     -0.042023
      6 H3         -4.4010    4.6960   -1.7650 hc        1 MOL     -0.042023
      7 N1         -2.2520    5.7690   -0.3020 n         1 MOL     -0.394755
      8 C3         -1.3820    6.0960    0.7960 c3        1 MOL     -0.008995
      9 C4          0.1030    5.9550    0.4940 c         1 MOL      0.702431
     10 O2          0.8440    5.7930    1.4510 o         1 MOL     -0.520384
     11 C5         -1.8370    5.3010    2.0300 c3        1 MOL     -0.296617
     12 C6         -3.3630    5.2870    2.4210 c         1 MOL      0.778742
     13 O3         -3.8650    6.4010    2.4200 o         1 MOL     -0.691998
     14 O4         -3.9160    4.2450    2.7360 o         1 MOL     -0.691998
     15 H4         -2.8520    6.5550   -0.5040 hn        1 MOL      0.260860
     16 H5         -1.6340    7.1470    0.9850 h1        1 MOL      0.059610
     17 H6         -1.2840    5.7980    2.8250 hc        1 MOL      0.100362
     18 H7         -1.4600    4.2960    1.8870 hc        1 MOL      0.100362
     19 N2          0.5740    6.0120   -0.7800 n         1 MOL     -0.596688
     20 C7          1.9590    5.8780   -1.3020 c3        1 MOL     -0.172271
     21 C8          2.9350    6.9540   -0.7880 c         1 MOL      0.595703
     22 O5          2.5720    8.0830   -0.4090 o         1 MOL     -0.583723
     23 C9          1.9750    5.7660   -2.8250 c3        1 MOL      0.437527
     24 C10         1.5320    7.0440   -3.5130 c3        1 MOL      0.038737
     25 C11         1.2850    4.5490   -3.3000 c3        1 MOL     -0.242659
     26 C12         2.2080    7.2940   -4.8850 c3        1 MOL     -0.297597
     27 H8         -0.1090    6.3040   -1.4690 hn        1 MOL      0.201098
     28 H9          2.3650    4.9720   -0.8520 h1        1 MOL      0.216212
     29 H10         3.0250    5.5740   -3.0280 hc        1 MOL     -0.063350
     30 H11         1.8070    7.9210   -2.9290 hc        1 MOL      0.003450
     31 H12         0.4620    7.0220   -3.6860 hc        1 MOL      0.003450
     32 H13         1.6930    3.6790   -2.7820 hc        1 MOL      0.046624
     33 H14         0.2040    4.5740   -3.1990 hc        1 MOL      0.046624
     34 H15         1.4840    4.3950   -4.3600 hc        1 MOL      0.046624
     35 H16         1.6990    8.1490   -5.3290 hc        1 MOL      0.061697
     36 H17         3.2170    7.6480   -4.6700 hc        1 MOL      0.061697
     37 H18         2.1150    6.4480   -5.5790 hc        1 MOL      0.061697
     38 N3          4.2740    6.7190   -0.6800 n         1 MOL     -0.483757
     39 C13         5.0240    5.4110   -0.7550 c3        1 MOL     -0.065738
     40 C14         6.1710    5.3890    0.2510 c         1 MOL      0.602271
     41 O6          6.8290    6.4170    0.4060 o         1 MOL     -0.558844
     42 C15         5.6800    5.2410   -2.1150 c3        1 MOL     -0.099102
     43 C16         6.8000    4.1860   -2.1650 c         1 MOL      0.724381
     44 O7          7.8480    4.4510   -2.8230 o         1 MOL     -0.723731
     45 O8          6.6040    3.0430   -1.6350 o         1 MOL     -0.723731
     46 H19         4.7830    7.5520   -0.4260 hn        1 MOL      0.304202
     47 H20         4.3320    4.5840   -0.6050 h1        1 MOL      0.011423
     48 H21         6.1370    6.1990   -2.4000 hc        1 MOL      0.016091
     49 H22         5.0120    5.0110   -2.9430 hc        1 MOL      0.016091
     50 N4          6.4760    4.2450    0.8510 n         1 MOL     -0.348031
     51 C17         7.5190    4.0970    1.9360 c3        1 MOL     -0.261976
     52 C18         7.6900    2.6980    2.6170 c         1 MOL      0.434475
     53 O9          8.7910    2.4420    3.2090 o         1 MOL     -0.554709
     54 H23         6.0320    3.3830    0.5570 hn        1 MOL      0.274002
     55 H24         7.2190    4.8480    2.6740 h1        1 MOL      0.148346
     56 H25         8.4310    4.4250    1.4530 h1        1 MOL      0.148346
     57 N5          6.6760    1.7960    2.6800 n         1 MOL     -0.132006
     58 C19         6.7840    0.4350    3.2930 c3        1 MOL     -0.062303
     59 C20         7.4080   -0.5820    2.2040 c         1 MOL      0.460390
     60 O10         8.0490   -1.5200    2.6000 o         1 MOL     -0.549173
     61 C21         5.4070   -0.1710    3.8100 c3        1 MOL     -0.365452
     62 C22         4.3610   -0.4120    2.6730 c         1 MOL      0.736094
     63 O11         3.4590    0.4710    2.4260 o         1 MOL     -0.693121
     64 O12         4.5120   -1.3500    1.8890 o         1 MOL     -0.693121
     65 H26         5.7490    2.0660    2.3710 hn        1 MOL      0.161459
     66 H27         7.4180    0.5190    4.1700 h1        1 MOL      0.113897
     67 H28         5.0560    0.5940    4.5120 hc        1 MOL      0.091511
     68 H29         5.6170   -1.1490    4.2330 hc        1 MOL      0.091511
     69 N6          7.3300   -0.2790    0.9000 n         1 MOL     -0.176807
     70 C23         7.8090   -1.0130   -0.2590 c3        1 MOL     -0.205859
     71 C24         7.4430   -2.4890   -0.2830 c         1 MOL      0.608282
     72 O13         8.1030   -3.1730   -1.0240 o         1 MOL     -0.603526
     73 H30         6.8800    0.6120    0.7320 hn        1 MOL      0.214230
     74 H31         8.8960   -1.0050   -0.3000 h1        1 MOL      0.108534
     75 H32         7.4890   -0.5740   -1.2060 h1        1 MOL      0.108534
     76 N7          6.4880   -2.9140    0.5090 n         1 MOL     -0.148862
     77 C25         6.0660   -4.3030    0.5700 c3        1 MOL     -0.281913
     78 C26         5.6470   -4.9410   -0.7500 c         1 MOL      0.520912
     79 O14         5.8160   -6.1810   -0.9370 o         1 MOL     -0.518450
     80 C27         7.0780   -5.1520    1.4900 c3        1 MOL      0.262044
     81 C28         7.2720   -4.7080    2.9470 c3        1 MOL     -0.288834
     82 C29         6.5570   -5.5380    4.0480 c         1 MOL      0.628196
     83 N8          6.7790   -5.2480    5.3200 n         1 MOL     -0.743102
     84 O15         5.7770   -6.4500    3.8100 o         1 MOL     -0.544638
     85 H33         6.1390   -2.2610    1.1940 hn        1 MOL      0.185272
     86 H34         5.1350   -4.2020    1.1320 h1        1 MOL      0.165450
     87 H35         8.0720   -5.0370    1.0520 hc        1 MOL     -0.031551
     88 H36         7.0020   -6.2350    1.4650 hc        1 MOL     -0.031551
     89 H37         7.0050   -3.6530    3.0610 hc        1 MOL      0.083596
     90 H38         8.3460   -4.7460    3.1060 hc        1 MOL      0.083596
     91 H39         7.3760   -4.4510    5.5010 hn        1 MOL      0.326913
     92 H40         6.6290   -6.0090    5.9670 hn        1 MOL      0.326913
     93 N9          5.0660   -4.1820   -1.6680 n         1 MOL     -0.344909
     94 C30         4.6410   -4.6500   -3.0460 c3        1 MOL     -0.134937
     95 C31         3.1740   -4.4180   -3.3820 c         1 MOL      0.625626
     96 O16         2.5560   -5.0290   -4.2660 o         1 MOL     -0.611026
     97 C32         5.5300   -4.0510   -4.1840 c3        1 MOL      0.430357
     98 C33         5.5480   -2.5190   -4.2140 c3        1 MOL     -0.494832
     99 C34         6.9200   -4.4300   -4.0630 c3        1 MOL     -0.494832
    100 H41         4.8230   -3.2420   -1.3920 hn        1 MOL      0.221050
    101 H42         4.7570   -5.7160   -3.2020 h1        1 MOL      0.096021
    102 H43         5.1400   -4.3670   -5.1530 hc        1 MOL     -0.054495
    103 H44         5.7510   -2.1410   -3.2110 hc        1 MOL      0.118838
    104 H45         6.2840   -2.1530   -4.9240 hc        1 MOL      0.118838
    105 H46         4.6000   -2.1370   -4.6050 hc        1 MOL      0.118838
    106 H47         6.8540   -5.4890   -3.8160 hc        1 MOL      0.118838
    107 H48         7.3430   -4.1620   -5.0330 hc        1 MOL      0.118838
    108 H49         7.4310   -3.9760   -3.2110 hc        1 MOL      0.118838
    109 N10         2.5190   -3.5370   -2.6970 n         1 MOL     -0.489922
    110 C35         1.0950   -3.1120   -2.7110 c3        1 MOL      0.324959
    111 C36         0.3710   -3.2890   -1.3450 c         1 MOL      0.439552
    112 O17         0.9370   -3.1550   -0.2770 o         1 MOL     -0.511647
    113 C37         1.0910   -1.6950   -3.2560 c3        1 MOL     -0.394329
    114 C38        -0.3770   -1.2600   -3.5020 c         1 MOL      0.691270
    115 N11        -0.8790   -0.2820   -2.8280 n         1 MOL     -0.761082
    116 O18        -1.1450   -1.9640   -4.0950 o         1 MOL     -0.578867
    117 H50         3.0280   -2.9430   -2.0490 hn        1 MOL      0.264790
    118 H51         0.5310   -3.8110   -3.3330 h1        1 MOL      0.044427
    119 H52         1.7550   -1.6140   -4.1170 hc        1 MOL      0.108397
    120 H53         1.6380   -1.1230   -2.5110 hc        1 MOL      0.108397
    121 H54        -0.3450    0.3580   -2.2610 hn        1 MOL      0.356419
    122 H55        -1.8480   -0.0510   -2.9550 hn        1 MOL      0.356419
    123 N12        -0.9380   -3.5030   -1.3740 n         1 MOL     -0.465481
    124 C39        -1.7060   -3.6920   -0.2020 c3        1 MOL      0.295253
    125 C40        -3.0750   -4.2350   -0.6690 c         1 MOL      0.531062
    126 O19        -3.3500   -4.3600   -1.8540 o         1 MOL     -0.547588
    127 C41        -2.0150   -2.3600    0.5630 c3        1 MOL     -0.234023
    128 C42        -2.3960   -2.5670    2.0540 ca        1 MOL      0.012912
    129 C43        -3.6840   -2.3000    2.4250 ca        1 MOL     -0.111756
    130 C44        -1.4440   -2.9980    3.0140 ca        1 MOL     -0.111756
    131 C45        -4.1050   -2.4680    3.7560 ca        1 MOL     -0.262588
    132 C46        -1.8580   -3.1120    4.3660 ca        1 MOL     -0.262588
    133 C47        -3.2030   -2.7530    4.7410 ca        1 MOL      0.309000
    134 O20        -3.5640   -2.5720    6.0880 oh        1 MOL     -0.488970
    135 H56        -1.4110   -3.6990   -2.2410 hn        1 MOL      0.278760
    136 H57        -1.3490   -4.3670    0.5650 h1        1 MOL      0.016871
    137 H58        -2.7080   -1.6950    0.0450 hc        1 MOL      0.112346
    138 H59        -1.1180   -1.7410    0.6070 hc        1 MOL      0.112346
    139 H60        -4.4270   -2.0170    1.6860 ha        1 MOL      0.160802
    140 H61        -0.4300   -3.1860    2.6880 ha        1 MOL      0.160802
    141 H62        -5.1400   -2.3150    4.0040 ha        1 MOL      0.152271
    142 H63        -1.1320   -3.2920    5.1470 ha        1 MOL      0.152271
    143 H64        -4.5030   -2.3970    6.1000 ho        1 MOL      0.338785
    144 N13        -3.9380   -4.6090    0.2900 n         1 MOL     -0.790869
    145 C48        -5.2000   -5.1870   -0.0640 c3        1 MOL      0.436570
    146 C49        -6.3030   -4.6180    0.8110 c         1 MOL      0.405944
    147 O21        -6.5650   -5.1220    1.8940 o         1 MOL     -0.552406
    148 C50        -5.0670   -6.7100   -0.0800 c3        1 MOL     -0.007025
    149 C51        -6.3770   -7.3110   -0.5570 c3        1 MOL     -0.401485
    150 C52        -6.2120   -8.8440   -0.4230 c         1 MOL      0.733003
    151 O22        -5.8990   -9.3190    0.7350 o         1 MOL     -0.683485
    152 O23        -6.3890   -9.5950   -1.3590 o         1 MOL     -0.683485
    153 H65        -3.6530   -4.6250    1.2610 hn        1 MOL      0.365719
    154 H66        -5.5330   -4.9600   -1.0760 h1        1 MOL      0.017569
    155 H67        -4.9820   -7.0740    0.9470 hc        1 MOL      0.039349
    156 H68        -4.1320   -7.0340   -0.5380 hc        1 MOL      0.039349
    157 H69        -6.6210   -7.0440   -1.5890 hc        1 MOL      0.097544
    158 H70        -7.2270   -6.9890    0.0480 hc        1 MOL      0.097544
    159 N14        -7.0170   -3.5780    0.4190 n         1 MOL     -0.374433
    160 C53        -6.7210   -2.5230   -0.6720 c3        1 MOL     -0.292695
    161 C54        -7.3010   -2.9960   -1.9960 c         1 MOL      0.527475
    162 O24        -8.3830   -3.6540   -1.9920 o         1 MOL     -0.541910
    163 C55        -7.3950   -1.2030   -0.2220 c3        1 MOL      0.073328
    164 C56        -6.7370    0.0160   -0.9930 c3        1 MOL     -0.228692
    165 C57        -7.3710    1.3540   -0.5980 c         1 MOL      0.658308
    166 O25        -7.5460    2.2830   -1.5110 o         1 MOL     -0.705287
    167 O26        -7.7510    1.5840    0.5810 o         1 MOL     -0.705287
    168 H71        -7.7510   -3.2970    1.0570 hn        1 MOL      0.291276
    169 H72        -5.6390   -2.4320   -0.8200 h1        1 MOL      0.113564
    170 H73        -7.1180   -0.9850    0.8160 hc        1 MOL      0.047768
    171 H74        -8.4760   -1.1840   -0.2840 hc        1 MOL      0.047768
    172 H75        -6.9360   -0.0710   -2.0620 hc        1 MOL      0.048693
    173 H76        -5.6720    0.1040   -0.8140 hc        1 MOL      0.048693
    174 N15        -6.5890   -2.6900   -3.0770 n         1 MOL     -0.224268
    175 C58        -6.7120   -3.1600   -4.4690 c3        1 MOL     -0.205049
    176 H77        -6.5130   -2.3330   -5.1500 h1        1 MOL      0.100413
    177 H78        -5.9940   -3.9590   -4.6480 h1        1 MOL      0.100413
    178 H79        -7.7230   -3.5340   -4.6390 h1        1 MOL      0.100413
    179 H80        -5.7910   -2.1200   -2.8330 hn        1 MOL      0.255712
    180 Ca1        -7.5450    4.1720    0.6470 Ca        1 MOL      1.747933
    181 O27        -9.3290    4.7410   -1.2630 oh        1 MOL     -0.847810
    182 H81        -9.3630    4.1020   -1.9800 ho        1 MOL      0.398350
    183 H82       -10.0300    5.3520   -1.4560 ho        1 MOL      0.398350
    184 O28        -6.9810    4.0230    3.4280 oh        1 MOL     -0.847810
    185 H83        -7.4710    4.4590    4.1280 ho        1 MOL      0.398350
    186 H84        -6.1720    3.7240    3.8510 ho        1 MOL      0.398350
    187 O29        -5.9650    6.1630    1.0530 oh        1 MOL     -0.847810
    188 H85        -5.2810    6.0080    1.7070 ho        1 MOL      0.398350
    189 H86        -5.8230    7.0600    0.7520 ho        1 MOL      0.398350
    190 O30        -5.1180    2.9600    1.0110 oh        1 MOL     -0.847810
    191 H87        -4.5510    2.2170    0.8500 ho        1 MOL      0.398350
    192 H88        -4.6600    3.4850    1.6650 ho        1 MOL      0.398350
    193 O31        -8.7990    6.0220    2.0530 oh        1 MOL     -0.847810
    194 H89        -9.4020    5.9240    2.7880 ho        1 MOL      0.398350
    195 H90        -8.3430    6.8460    2.2230 ho        1 MOL      0.398350
    196 O32        -9.9930    3.6500    1.6550 oh        1 MOL     -0.847810
    197 H91       -10.8500    3.7480    1.2440 ho        1 MOL      0.398350
    198 H92       -10.1650    3.6710    2.5930 ho        1 MOL      0.398350
@<TRIPOS>BOND
     1    1    2 1   
     2    1    4 1   
     3    1    5 1   
     4    1    6 1   
     5    2    3 2   
     6    2    7 1   
     7    7    8 1   
     8    7   15 1   
     9    8    9 1   
    10    8   11 1   
    11    8   16 1   
    12    9   10 2   
    13    9   19 1   
    14   11   12 1   
    15   11   17 1   
    16   11   18 1   
    17   12   13 1   
    18   12   14 1   
    19   19   20 1   
    20   19   27 1   
    21   20   21 1   
    22   20   23 1   
    23   20   28 1   
    24   21   22 2   
    25   21   38 1   
    26   23   24 1   
    27   23   25 1   
    28   23   29 1   
    29   24   26 1   
    30   24   30 1   
    31   24   31 1   
    32   25   32 1   
    33   25   33 1   
    34   25   34 1   
    35   26   35 1   
    36   26   36 1   
    37   26   37 1   
    38   38   39 1   
    39   38   46 1   
    40   39   40 1   
    41   39   42 1   
    42   39   47 1   
    43   40   41 2   
    44   40   50 1   
    45   42   43 1   
    46   42   48 1   
    47   42   49 1   
    48   43   44 1   
    49   43   45 1   
    50   50   51 1   
    51   50   54 1   
    52   51   52 1   
    53   51   55 1   
    54   51   56 1   
    55   52   53 2   
    56   52   57 1   
    57   57   58 1   
    58   57   65 1   
    59   58   59 1   
    60   58   61 1   
    61   58   66 1   
    62   59   60 2   
    63   59   69 1   
    64   61   62 1   
    65   61   67 1   
    66   61   68 1   
    67   62   63 1   
    68   62   64 1   
    69   69   70 1   
    70   69   73 1   
    71   70   71 1   
    72   70   74 1   
    73   70   75 1   
    74   71   72 2   
    75   71   76 1   
    76   76   77 1   
    77   76   85 1   
    78   77   78 1   
    79   77   80 1   
    80   77   86 1   
    81   78   79 2   
    82   78   93 1   
    83   80   81 1   
    84   80   87 1   
    85   80   88 1   
    86   81   82 1   
    87   81   89 1   
    88   81   90 1   
    89   82   83 1   
    90   82   84 2   
    91   83   91 1   
    92   83   92 1   
    93   93   94 1   
    94   93  100 1   
    95   94   95 1   
    96   94   97 1   
    97   94  101 1   
    98   95   96 2   
    99   95  109 1   
   100   97   98 1   
   101   97   99 1   
   102   97  102 1   
   103   98  103 1   
   104   98  104 1   
   105   98  105 1   
   106   99  106 1   
   107   99  107 1   
   108   99  108 1   
   109  109  110 1   
   110  109  117 1   
   111  110  111 1   
   112  110  113 1   
   113  110  118 1   
   114  111  112 2   
   115  111  123 1   
   116  113  114 1   
   117  113  119 1   
   118  113  120 1   
   119  114  115 1   
   120  114  116 2   
   121  115  121 1   
   122  115  122 1   
   123  123  124 1   
   124  123  135 1   
   125  124  125 1   
   126  124  127 1   
   127  124  136 1   
   128  125  126 2   
   129  125  144 1   
   130  127  128 1   
   131  127  137 1   
   132  127  138 1   
   133  128  129 ar  
   134  128  130 ar  
   135  129  131 ar  
   136  129  139 1   
   137  130  132 ar  
   138  130  140 1   
   139  131  133 ar  
   140  131  141 1   
   141  132  133 ar  
   142  132  142 1   
   143  133  134 1   
   144  134  143 1   
   145  144  145 1   
   146  144  153 1   
   147  145  146 1   
   148  145  148 1   
   149  145  154 1   
   150  146  147 2   
   151  146  159 1   
   152  148  149 1   
   153  148  155 1   
   154  148  156 1   
   155  149  150 1   
   156  149  157 1   
   157  149  158 1   
   158  150  151 1   
   159  150  152 1   
   160  159  160 1   
   161  159  168 1   
   162  160  161 1   
   163  160  163 1   
   164  160  169 1   
   165  161  162 2   
   166  161  174 1   
   167  163  164 1   
   168  163  170 1   
   169  163  171 1   
   170  164  165 1   
   171  164  172 1   
   172  164  173 1   
   173  165  166 1   
   174  165  167 1   
   175  174  175 1   
   176  174  179 1   
   177  175  176 1   
   178  175  177 1   
   179  175  178 1   
   180  181  182 1   
   181  181  183 1   
   182  184  185 1   
   183  184  186 1   
   184  187  188 1   
   185  187  189 1   
   186  190  191 1   
   187  190  192 1   
   188  193  194 1   
   189  193  195 1   
   190  196  197 1   
   191  196  198 1   
@<TRIPOS>SUBSTRUCTURE
     1 MOL         1 TEMP              0 ****  ****    0 ROOT
