@<TRIPOS>MOLECULE
MOL
  191   184     1     0     0
SMALL
resp


@<TRIPOS>ATOM
      1 C1         -5.2460    0.8510   -3.0390 c3        1 MOL     -0.459519
      2 C2         -6.5840    0.8810   -2.2630 c         1 MOL      0.607151
      3 O1         -6.4930    1.0600   -1.0650 o         1 MOL     -0.475098
      4 H1         -4.4260    0.6740   -2.3430 hc        1 MOL      0.111891
      5 H2         -5.2730    0.0520   -3.7790 hc        1 MOL      0.111891
      6 H3         -5.0950    1.8070   -3.5400 hc        1 MOL      0.111891
      7 N1         -7.7340    0.7930   -2.9470 n         1 MOL     -0.527659
      8 C3         -9.0730    0.7540   -2.4550 c3        1 MOL      0.265316
      9 C4         -9.3050   -0.2640   -1.2770 c         1 MOL      0.216259
     10 O2        -10.1320   -0.0740   -0.3930 o         1 MOL     -0.387833
     11 C5         -9.4720    2.1740   -2.0960 c3        1 MOL     -0.259819
     12 C6        -10.9810    2.3510   -1.8090 c         1 MOL      0.685760
     13 O3        -11.4090    3.3450   -1.1720 o         1 MOL     -0.636093
     14 O4        -11.7960    1.5340   -2.2570 o         1 MOL     -0.636093
     15 H4         -7.6620    0.7360   -3.9510 hn        1 MOL      0.305446
     16 H5         -9.6900    0.5520   -3.3270 h1        1 MOL     -0.010890
     17 H6         -9.1990    2.9480   -2.8260 hc        1 MOL      0.083779
     18 H7         -8.9000    2.3840   -1.1910 hc        1 MOL      0.083779
     19 N2         -8.5260   -1.3140   -1.2450 n         1 MOL     -0.277927
     20 C7         -8.5090   -2.3420   -0.1970 c3        1 MOL      0.045113
     21 C8         -7.1560   -2.4260    0.5750 c         1 MOL      0.536217
     22 O5         -6.8390   -3.4630    1.1510 o         1 MOL     -0.575266
     23 C9         -8.9480   -3.7130   -0.8050 c3        1 MOL      0.032364
     24 C10        -9.9390   -3.6640   -1.9850 c3        1 MOL      0.147740
     25 C11       -10.0790   -4.9710   -2.7600 c3        1 MOL     -0.416846
     26 C12       -10.6080   -4.7180   -4.1840 c3        1 MOL      0.205025
     27 N3        -10.6640   -5.9290   -4.9770 n4        1 MOL     -0.189784
     28 H8         -7.8770   -1.4410   -2.0090 hn        1 MOL      0.195126
     29 H9         -9.2690   -2.1170    0.5460 h1        1 MOL      0.092624
     30 H10        -9.4190   -4.3060   -0.0210 hc        1 MOL      0.005732
     31 H11        -8.1060   -4.3510   -1.0530 hc        1 MOL      0.005732
     32 H12        -9.5360   -2.9610   -2.7260 hc        1 MOL      0.012852
     33 H13       -10.9110   -3.3450   -1.6030 hc        1 MOL      0.012852
     34 H14       -10.8970   -5.5290   -2.2930 hc        1 MOL      0.119568
     35 H15        -9.1700   -5.5590   -2.7230 hc        1 MOL      0.119568
     36 H16        -9.9230   -3.9880   -4.5970 hx        1 MOL      0.029446
     37 H17       -11.6080   -4.2890   -4.2050 hx        1 MOL      0.029446
     38 H18       -11.2790   -6.6110   -4.5430 hn        1 MOL      0.220656
     39 H19       -11.0090   -5.7380   -5.9050 hn        1 MOL      0.220656
     40 H20        -9.7400   -6.3400   -4.9490 hn        1 MOL      0.220656
     41 N4         -6.3930   -1.3000    0.6540 n         1 MOL     -0.483504
     42 C13        -5.1060   -1.2250    1.4500 c3        1 MOL      0.135405
     43 C14        -5.1550   -0.3480    2.6890 c         1 MOL      0.372004
     44 O6         -5.6860    0.7690    2.7060 o         1 MOL     -0.449452
     45 C15        -3.9610   -0.8570    0.5160 c3        1 MOL     -0.193845
     46 C16        -2.6170   -1.1430    1.1690 c         1 MOL      0.771482
     47 O7         -2.2400   -0.3880    2.0750 o         1 MOL     -0.753935
     48 O8         -1.9300   -2.1080    0.7860 o         1 MOL     -0.753935
     49 H21        -6.7580   -0.4770    0.1930 hn        1 MOL      0.301351
     50 H22        -4.8830   -2.2460    1.7850 h1        1 MOL      0.065363
     51 H23        -4.1070    0.1820    0.1970 hc        1 MOL      0.045367
     52 H24        -4.0270   -1.4850   -0.3630 hc        1 MOL      0.045367
     53 N5         -4.5810   -0.8680    3.7770 n         1 MOL     -0.189088
     54 C17        -4.4780   -0.3160    5.1140 c3        1 MOL     -0.175169
     55 C18        -3.7710    1.0510    5.1530 c         1 MOL      0.535730
     56 O9         -4.1460    1.8340    6.0290 o         1 MOL     -0.545460
     57 H25        -4.3280   -1.8450    3.6890 hn        1 MOL      0.198858
     58 H26        -3.9750   -1.0730    5.7150 h1        1 MOL      0.091122
     59 H27        -5.4800   -0.2650    5.5300 h1        1 MOL      0.091122
     60 N6         -2.8490    1.4020    4.2350 n         1 MOL     -0.427934
     61 C19        -2.1810    2.7500    4.0670 c3        1 MOL      0.179839
     62 C20        -2.2210    3.2770    2.6150 c         1 MOL      0.410138
     63 O10        -2.3260    4.5040    2.4210 o         1 MOL     -0.515955
     64 C21        -0.8230    2.7170    4.7790 c3        1 MOL     -0.363693
     65 C22         0.2810    2.0180    4.0420 c         1 MOL      0.665281
     66 N7          1.4780    2.4900    4.1200 n         1 MOL     -0.721012
     67 O11         0.0840    0.9410    3.4740 o         1 MOL     -0.613095
     68 H28        -2.6320    0.6090    3.6580 hn        1 MOL      0.364145
     69 H29        -2.8190    3.4720    4.5820 h1        1 MOL      0.089397
     70 H30        -0.8670    2.1750    5.7210 hc        1 MOL      0.115617
     71 H31        -0.5540    3.7530    4.9740 hc        1 MOL      0.115617
     72 H32         1.5070    3.3720    4.6000 hn        1 MOL      0.355294
     73 H33         2.2810    1.9450    3.8600 hn        1 MOL      0.355294
     74 N8         -2.0470    2.3440    1.6990 n         1 MOL     -0.171844
     75 C23        -1.7060    2.5610    0.2600 c3        1 MOL     -0.138168
     76 C24        -0.2750    3.0320    0.0200 c         1 MOL      0.636843
     77 O12         0.3410    3.5720    0.9230 o         1 MOL     -0.507955
     78 H34        -1.9760    1.4040    2.0620 hn        1 MOL      0.056605
     79 H35        -2.3280    3.3880   -0.0920 h1        1 MOL      0.121743
     80 H36        -1.9650    1.7240   -0.3910 h1        1 MOL      0.121743
     81 N9          0.0680    2.9790   -1.2690 n         1 MOL     -0.551503
     82 C25         1.4290    3.3830   -1.7210 c3        1 MOL      0.488679
     83 C26         2.2830    2.2180   -2.0160 c         1 MOL      0.288174
     84 O13         1.8190    1.0780   -2.0850 o         1 MOL     -0.506966
     85 C27         1.4580    4.4250   -2.8470 c3        1 MOL      0.054714
     86 C28         1.1110    5.8440   -2.3890 ca        1 MOL     -0.142455
     87 C29        -0.2790    6.1880   -2.2090 ca        1 MOL     -0.026725
     88 C30         2.1160    6.7570   -2.1080 ca        1 MOL     -0.026725
     89 C31        -0.5580    7.4250   -1.6380 ca        1 MOL     -0.373495
     90 C32         1.8230    7.9770   -1.4540 ca        1 MOL     -0.373495
     91 C33         0.4640    8.2540   -1.1240 ca        1 MOL      0.475466
     92 O14         0.2120    9.4160   -0.4340 oh        1 MOL     -0.482040
     93 H37        -0.4490    2.3800   -1.8920 hn        1 MOL      0.257668
     94 H38         1.9730    3.9350   -0.9520 h1        1 MOL     -0.095257
     95 H39         0.7830    4.0650   -3.6260 hc        1 MOL     -0.019066
     96 H40         2.4750    4.3920   -3.2440 hc        1 MOL     -0.019066
     97 H41        -1.1080    5.5810   -2.5330 ha        1 MOL      0.102544
     98 H42         3.1210    6.4840   -2.3910 ha        1 MOL      0.102544
     99 H43        -1.6000    7.6140   -1.4260 ha        1 MOL      0.182896
    100 H44         2.6650    8.5610   -1.1030 ha        1 MOL      0.182896
    101 H45         0.9500   10.0320   -0.4920 ho        1 MOL      0.341435
    102 N10         3.5960    2.4770   -2.1710 n         1 MOL     -0.355103
    103 C34         4.5610    1.3890   -2.3950 c3        1 MOL      0.254357
    104 C35         5.4770    1.2840   -1.1730 c         1 MOL      0.315424
    105 O15         5.8050    0.1730   -0.7670 o         1 MOL     -0.443890
    106 C36         5.3840    1.5850   -3.6770 c3        1 MOL      0.111625
    107 C37         4.6250    1.7270   -5.0180 c3        1 MOL     -0.071580
    108 C38         6.4800    0.5320   -3.8490 c3        1 MOL     -0.413234
    109 C39         3.9770    0.4740   -5.5200 c3        1 MOL     -0.075403
    110 H46         4.0160    3.3500   -1.8960 hn        1 MOL      0.241428
    111 H47         4.1070    0.4040   -2.4800 h1        1 MOL      0.035357
    112 H48         5.8660    2.5500   -3.5130 hc        1 MOL     -0.085975
    113 H49         5.3210    2.0210   -5.8010 hc        1 MOL      0.035424
    114 H50         3.9110    2.5480   -4.9090 hc        1 MOL      0.035424
    115 H51         7.1630    0.5330   -3.0040 hc        1 MOL      0.116005
    116 H52         5.9640   -0.4370   -3.8430 hc        1 MOL      0.116005
    117 H53         7.0850    0.6730   -4.7390 hc        1 MOL      0.116005
    118 H54         4.7020   -0.2270   -5.9160 hc        1 MOL      0.035681
    119 H55         3.3580    0.1320   -4.6880 hc        1 MOL      0.035681
    120 H56         3.2270    0.7070   -6.2730 hc        1 MOL      0.035681
    121 N11         5.9600    2.3500   -0.5670 n         1 MOL     -0.382157
    122 C40         6.8510    2.4370    0.6070 c3        1 MOL      0.235038
    123 C41         8.0630    1.5300    0.6280 c         1 MOL      0.261104
    124 O16         8.4710    1.0850    1.6820 o         1 MOL     -0.466469
    125 C42         7.4510    3.7910    0.8290 c3        1 MOL      0.311222
    126 O17         6.4340    4.7290    0.6220 oh        1 MOL     -0.628910
    127 H57         5.7530    3.2080   -1.0550 hn        1 MOL      0.222204
    128 H58         6.2820    2.1700    1.5040 h1        1 MOL      0.056337
    129 H59         8.2170    3.9890    0.0720 h1        1 MOL     -0.007371
    130 H60         7.8710    3.9000    1.8360 h1        1 MOL     -0.007371
    131 H61         6.9300    5.3740    0.1180 ho        1 MOL      0.389073
    132 N12         8.5830    1.1830   -0.5840 n         1 MOL     -0.373879
    133 C43         9.7400    0.2840   -0.8790 c3        1 MOL      0.205424
    134 C44         9.5070   -1.1380   -0.3550 c         1 MOL      0.405362
    135 O18        10.4320   -1.9670   -0.2920 o         1 MOL     -0.520955
    136 C45        11.1380    0.9040   -0.4120 c3        1 MOL     -0.322392
    137 H62         8.2620    1.6580   -1.4180 hn        1 MOL      0.251998
    138 H63         9.7320    0.2040   -1.9710 h1        1 MOL      0.051753
    139 H64        11.3750    1.8230   -0.9580 hc        1 MOL      0.103666
    140 H65        11.2380    1.0380    0.6620 hc        1 MOL      0.103666
    141 H66        11.9410    0.2350   -0.7220 hc        1 MOL      0.103666
    142 N13         8.2320   -1.5250    0.0020 n         1 MOL     -0.297667
    143 C46         7.8250   -2.7890    0.4950 c3        1 MOL      0.343521
    144 C47         6.8880   -3.5500   -0.4290 c         1 MOL      0.426466
    145 O19         6.2540   -2.9860   -1.2980 o         1 MOL     -0.440229
    146 C48         7.3110   -2.6150    1.9240 c3        1 MOL     -0.080599
    147 H67         7.4490   -0.9790   -0.3090 hn        1 MOL      0.107544
    148 H68         8.6160   -3.5370    0.6190 h1        1 MOL     -0.041765
    149 H69         8.0260   -2.1540    2.5980 hc        1 MOL      0.027576
    150 H70         6.4120   -2.0000    1.9550 hc        1 MOL      0.027576
    151 H71         7.0600   -3.5760    2.3830 hc        1 MOL      0.027576
    152 N14         6.7380   -4.8510   -0.2040 n         1 MOL     -0.596427
    153 C49         5.7010   -5.7260   -0.7830 c3        1 MOL      0.141464
    154 C50         5.6660   -5.6240   -2.3310 c         1 MOL      0.490491
    155 O20         4.6170   -5.7610   -2.8910 o         1 MOL     -0.504550
    156 C51         4.3140   -5.5470   -0.1420 c3        1 MOL      0.351116
    157 C52         4.3890   -5.4450    1.4060 c3        1 MOL     -0.031347
    158 C53         3.0370   -5.5280    2.1490 c         1 MOL      0.654986
    159 O21         1.9120   -5.4430    1.5800 o         1 MOL     -0.677932
    160 O22         3.0350   -5.7190    3.4020 o         1 MOL     -0.677932
    161 H72         7.2760   -5.1680    0.5880 hn        1 MOL      0.323736
    162 H73         5.9640   -6.7710   -0.6020 h1        1 MOL      0.020829
    163 H74         3.5970   -6.3270   -0.4000 hc        1 MOL     -0.128963
    164 H75         3.9210   -4.5920   -0.4870 hc        1 MOL     -0.128963
    165 H76         4.9230   -4.5380    1.6890 hc        1 MOL     -0.050467
    166 H77         5.0200   -6.2380    1.8140 hc        1 MOL     -0.050467
    167 N15         6.8030   -5.4440   -2.9660 n         1 MOL     -0.369591
    168 C54         6.9900   -5.1240   -4.4130 c3        1 MOL     -0.251205
    169 H78         8.0520   -5.1560   -4.6580 h1        1 MOL      0.126646
    170 H79         6.4560   -5.8540   -5.0200 h1        1 MOL      0.126646
    171 H80         6.6010   -4.1260   -4.6180 h1        1 MOL      0.126646
    172 H81         7.5910   -5.3060   -2.3580 hn        1 MOL      0.246718
    173 Ca1         0.1040   -1.4330    2.2550 Ca        1 MOL      1.828732
    174 O23         1.7730   -2.0460    4.2580 oh        1 MOL     -0.871214
    175 H82         2.6740   -1.7950    4.0410 ho        1 MOL      0.420715
    176 H83         1.6830   -1.8130    5.1780 ho        1 MOL      0.420715
    177 O24         0.2070   -0.3230   -0.3080 oh        1 MOL     -0.871214
    178 O25        -0.2200   -4.1380    2.4250 oh        1 MOL     -0.871214
    179 H84        -0.1260   -0.9620   -0.9420 ho        1 MOL      0.420715
    180 H85         0.6270   -4.4830    2.1340 ho        1 MOL      0.420715
    181 H86         0.7100    0.2980   -0.8370 ho        1 MOL      0.420715
    182 H87        -0.6310   -4.8780    2.8950 ho        1 MOL      0.420715
    183 O26         1.6470   -2.9970    0.5840 oh        1 MOL     -0.871214
    184 H88         1.7770   -3.8990    0.8760 ho        1 MOL      0.420715
    185 H89         2.4320   -2.7990    0.0640 ho        1 MOL      0.420715
    186 O27         2.4130   -0.2140    1.8080 oh        1 MOL     -0.871214
    187 H90         2.7380    0.6950    1.7880 ho        1 MOL      0.420715
    188 H91         3.0650   -0.7120    1.3050 ho        1 MOL      0.420715
    189 O28        -1.4970   -1.7800    4.3250 oh        1 MOL     -0.871214
    190 H92        -1.4350   -1.4890    5.2330 ho        1 MOL      0.420715
    191 H93        -2.2300   -2.3970    4.3220 ho        1 MOL      0.420715
@<TRIPOS>BOND
     1    1    2 1   
     2    1    4 1   
     3    1    5 1   
     4    1    6 1   
     5    2    3 2   
     6    2    7 1   
     7    7    8 1   
     8    7   15 1   
     9    8    9 1   
    10    8   11 1   
    11    8   16 1   
    12    9   10 2   
    13    9   19 1   
    14   11   12 1   
    15   11   17 1   
    16   11   18 1   
    17   12   13 1   
    18   12   14 1   
    19   19   20 1   
    20   19   28 1   
    21   20   21 1   
    22   20   23 1   
    23   20   29 1   
    24   21   22 2   
    25   21   41 1   
    26   23   24 1   
    27   23   30 1   
    28   23   31 1   
    29   24   25 1   
    30   24   32 1   
    31   24   33 1   
    32   25   26 1   
    33   25   34 1   
    34   25   35 1   
    35   26   27 1   
    36   26   36 1   
    37   26   37 1   
    38   27   38 1   
    39   27   39 1   
    40   27   40 1   
    41   41   42 1   
    42   41   49 1   
    43   42   43 1   
    44   42   45 1   
    45   42   50 1   
    46   43   44 2   
    47   43   53 1   
    48   45   46 1   
    49   45   51 1   
    50   45   52 1   
    51   46   47 1   
    52   46   48 1   
    53   53   54 1   
    54   53   57 1   
    55   54   55 1   
    56   54   58 1   
    57   54   59 1   
    58   55   56 2   
    59   55   60 1   
    60   60   61 1   
    61   60   68 1   
    62   61   62 1   
    63   61   64 1   
    64   61   69 1   
    65   62   63 2   
    66   62   74 1   
    67   64   65 1   
    68   64   70 1   
    69   64   71 1   
    70   65   66 1   
    71   65   67 2   
    72   66   72 1   
    73   66   73 1   
    74   74   75 1   
    75   74   78 1   
    76   75   76 1   
    77   75   79 1   
    78   75   80 1   
    79   76   77 2   
    80   76   81 1   
    81   81   82 1   
    82   81   93 1   
    83   82   83 1   
    84   82   85 1   
    85   82   94 1   
    86   83   84 2   
    87   83  102 1   
    88   85   86 1   
    89   85   95 1   
    90   85   96 1   
    91   86   87 ar  
    92   86   88 ar  
    93   87   89 ar  
    94   87   97 1   
    95   88   90 ar  
    96   88   98 1   
    97   89   91 ar  
    98   89   99 1   
    99   90   91 ar  
   100   90  100 1   
   101   91   92 1   
   102   92  101 1   
   103  102  103 1   
   104  102  110 1   
   105  103  104 1   
   106  103  106 1   
   107  103  111 1   
   108  104  105 2   
   109  104  121 1   
   110  106  107 1   
   111  106  108 1   
   112  106  112 1   
   113  107  109 1   
   114  107  113 1   
   115  107  114 1   
   116  108  115 1   
   117  108  116 1   
   118  108  117 1   
   119  109  118 1   
   120  109  119 1   
   121  109  120 1   
   122  121  122 1   
   123  121  127 1   
   124  122  123 1   
   125  122  125 1   
   126  122  128 1   
   127  123  124 2   
   128  123  132 1   
   129  125  126 1   
   130  125  129 1   
   131  125  130 1   
   132  126  131 1   
   133  132  133 1   
   134  132  137 1   
   135  133  134 1   
   136  133  136 1   
   137  133  138 1   
   138  134  135 2   
   139  134  142 1   
   140  136  139 1   
   141  136  140 1   
   142  136  141 1   
   143  142  143 1   
   144  142  147 1   
   145  143  144 1   
   146  143  146 1   
   147  143  148 1   
   148  144  145 2   
   149  144  152 1   
   150  146  149 1   
   151  146  150 1   
   152  146  151 1   
   153  152  153 1   
   154  152  161 1   
   155  153  154 1   
   156  153  156 1   
   157  153  162 1   
   158  154  155 2   
   159  154  167 1   
   160  156  157 1   
   161  156  163 1   
   162  156  164 1   
   163  157  158 1   
   164  157  165 1   
   165  157  166 1   
   166  158  159 1   
   167  158  160 1   
   168  167  168 1   
   169  167  172 1   
   170  168  169 1   
   171  168  170 1   
   172  168  171 1   
   173  174  175 1   
   174  174  176 1   
   175  177  179 1   
   176  177  181 1   
   177  178  180 1   
   178  178  182 1   
   179  183  184 1   
   180  183  185 1   
   181  186  187 1   
   182  186  188 1   
   183  189  190 1   
   184  189  191 1   
@<TRIPOS>SUBSTRUCTURE
     1 MOL         1 TEMP              0 ****  ****    0 ROOT
