@<TRIPOS>MOLECULE
MOL
  195   189     1     0     0
SMALL
resp


@<TRIPOS>ATOM
      1 C1        -12.5040   -3.2830   -3.4420 c3        1 MOL     -0.412102
      2 C2        -11.5800   -2.4520   -2.4620 c         1 MOL      0.627639
      3 O1        -11.3080   -1.2820   -2.6990 o         1 MOL     -0.596688
      4 H1        -12.3750   -4.3480   -3.2470 hc        1 MOL      0.110259
      5 H2        -13.5460   -3.0080   -3.2790 hc        1 MOL      0.110259
      6 H3        -12.2270   -3.0680   -4.4740 hc        1 MOL      0.110259
      7 N1        -11.2750   -3.0140   -1.3280 n         1 MOL     -0.407504
      8 C3        -10.7680   -2.3160   -0.1860 c3        1 MOL      0.024461
      9 C4         -9.2620   -1.9780   -0.4840 c         1 MOL      0.638348
     10 O2         -8.4010   -2.7790   -0.6280 o         1 MOL     -0.680713
     11 C5        -10.8260   -3.1980    1.0790 c3        1 MOL     -0.577946
     12 C6        -10.4090   -4.6650    0.7960 c         1 MOL      0.824660
     13 O3         -9.2840   -5.1630    1.0720 o         1 MOL     -0.706888
     14 O4        -11.2890   -5.4120    0.3020 o         1 MOL     -0.706888
     15 H4        -11.4670   -3.9910   -1.1410 hn        1 MOL      0.284176
     16 H5        -11.3430   -1.4050   -0.0110 h1        1 MOL      0.108983
     17 H6        -11.8580   -3.0600    1.4060 hc        1 MOL      0.186536
     18 H7        -10.1260   -2.7370    1.7820 hc        1 MOL      0.186536
     19 N2         -9.0220   -0.6510   -0.5120 n         1 MOL     -0.394520
     20 C7         -7.6680   -0.0630   -0.7350 c3        1 MOL     -0.048940
     21 C8         -6.9060    0.1850    0.6320 c         1 MOL      0.778220
     22 O5         -7.5110    0.6730    1.5900 o         1 MOL     -0.570481
     23 C9         -8.0250    1.3180   -1.4310 c3        1 MOL     -0.215643
     24 C10        -6.7900    2.0670   -1.7640 c3        1 MOL     -0.046038
     25 C11        -7.2610    3.3950   -2.4370 c3        1 MOL     -0.179404
     26 C12        -5.9920    4.1040   -2.9600 c3        1 MOL      0.105557
     27 N3         -6.2450    5.4440   -3.4140 n4        1 MOL     -0.412237
     28 H8         -9.8150   -0.0290   -0.4930 hn        1 MOL      0.235343
     29 H9         -7.0910   -0.7670   -1.3350 h1        1 MOL      0.067886
     30 H10        -8.5880    1.8710   -0.6850 hc        1 MOL      0.121231
     31 H11        -8.6750    1.1440   -2.2900 hc        1 MOL      0.121231
     32 H12        -6.1070    1.5210   -2.4110 hc        1 MOL      0.058232
     33 H13        -6.1660    2.3090   -0.9040 hc        1 MOL      0.058232
     34 H14        -7.8010    4.0590   -1.7630 hc        1 MOL      0.072335
     35 H15        -7.9660    3.2650   -3.2550 hc        1 MOL      0.072335
     36 H16        -5.4980    3.5620   -3.7710 hx        1 MOL      0.099233
     37 H17        -5.2960    4.2400   -2.1320 hx        1 MOL      0.099233
     38 H18        -5.4880    6.1000   -3.3160 hn        1 MOL      0.304355
     39 H19        -6.6470    5.3280   -4.3360 hn        1 MOL      0.304355
     40 H20        -6.9830    5.9070   -2.9070 hn        1 MOL      0.304355
     41 N4         -5.6470   -0.2070    0.6700 n         1 MOL     -0.720877
     42 C13        -4.7590   -0.1100    1.8240 c3        1 MOL      0.460516
     43 C14        -3.2620   -0.1610    1.3820 c         1 MOL      0.360306
     44 O6         -2.7790   -0.7730    0.3890 o         1 MOL     -0.527341
     45 C15        -5.0820   -1.1670    2.8500 c3        1 MOL     -0.334037
     46 C16        -5.6660   -2.4590    2.2840 c         1 MOL      0.966320
     47 O7         -6.8670   -2.7850    2.4620 o         1 MOL     -0.839183
     48 O8         -5.0300   -3.2030    1.5150 o         1 MOL     -0.839183
     49 H21        -5.1940   -0.6890   -0.0880 hn        1 MOL      0.291926
     50 H22        -4.7890    0.8640    2.2960 h1        1 MOL     -0.023796
     51 H23        -5.8590   -0.8300    3.5340 hc        1 MOL      0.067162
     52 H24        -4.2120   -1.3970    3.4660 hc        1 MOL      0.067162
     53 N5         -2.3980    0.5720    2.0220 n         1 MOL     -0.289303
     54 C17        -2.5880    1.5500    3.1210 c3        1 MOL     -0.086584
     55 C18        -3.1220    2.9120    2.7290 c         1 MOL      0.621827
     56 O9         -3.4500    3.1850    1.5320 o         1 MOL     -0.538545
     57 H25        -1.4900    0.6820    1.5940 hn        1 MOL      0.283836
     58 H26        -1.6390    1.7570    3.6220 h1        1 MOL      0.065568
     59 H27        -3.2190    1.1630    3.9170 h1        1 MOL      0.065568
     60 N6         -2.8730    3.8420    3.6630 n         1 MOL     -0.455654
     61 C19        -2.9500    5.2960    3.3050 c3        1 MOL     -0.036359
     62 C20        -1.7720    5.7340    2.4620 c         1 MOL      0.496991
     63 O10        -0.5940    5.6650    2.8370 o         1 MOL     -0.509829
     64 C21        -3.0680    6.0770    4.5760 c3        1 MOL     -0.135484
     65 C22        -3.1870    7.5930    4.3700 c         1 MOL      0.631224
     66 O11        -2.3020    8.4630    4.7300 o         1 MOL     -0.652331
     67 O12        -4.3330    7.9610    3.9170 o         1 MOL     -0.652331
     68 H28        -2.3970    3.5310    4.4920 hn        1 MOL      0.299593
     69 H29        -3.8560    5.4740    2.7200 h1        1 MOL      0.051358
     70 H30        -2.1520    5.9100    5.1450 hc        1 MOL      0.050712
     71 H31        -3.8560    5.7150    5.2350 hc        1 MOL      0.050712
     72 N7         -2.0770    6.1600    1.2420 n         1 MOL     -0.297256
     73 C23        -1.1660    6.5680    0.1680 c3        1 MOL      0.069506
     74 C24        -0.8290    5.5530   -0.9170 c         1 MOL      0.619966
     75 O13        -0.3420    6.0160   -1.9180 o         1 MOL     -0.568170
     76 H32        -3.0600    6.2130    0.9910 hn        1 MOL      0.231313
     77 H33        -0.2620    6.8030    0.7360 h1        1 MOL      0.032328
     78 H34        -1.4990    7.4880   -0.3020 h1        1 MOL      0.032328
     79 N8         -1.0290    4.2610   -0.6230 n         1 MOL     -0.543768
     80 C25        -0.6570    3.2080   -1.5760 c3        1 MOL      0.362805
     81 C26        -0.1300    1.9620   -0.8210 c         1 MOL      0.148941
     82 O14        -0.2730    1.7920    0.4010 o         1 MOL     -0.409076
     83 C27        -1.8430    2.9170   -2.4730 c3        1 MOL      0.048673
     84 C28        -3.0260    2.2880   -1.7400 c3        1 MOL     -0.133922
     85 O15        -2.4900    4.1060   -3.0170 oh        1 MOL     -0.607033
     86 H35        -1.7120    4.0160    0.0810 hn        1 MOL      0.272472
     87 H36         0.1320    3.5790   -2.2300 h1        1 MOL      0.033832
     88 H37        -1.5000    2.3370   -3.3310 h1        1 MOL      0.042894
     89 H38        -2.5770    4.0310   -3.9670 ho        1 MOL      0.383219
     90 H39        -3.3430    2.9010   -0.8980 hc        1 MOL      0.025553
     91 H40        -3.8000    2.1270   -2.4890 hc        1 MOL      0.025553
     92 H41        -2.6730    1.3040   -1.4180 hc        1 MOL      0.025553
     93 N9          0.3320    0.9940   -1.6340 n         1 MOL     -0.066061
     94 C29         0.9550   -0.2810   -1.1020 c3        1 MOL     -0.262946
     95 C30         2.3940   -0.0210   -0.5580 c         1 MOL      0.623995
     96 O16         2.9200   -0.7180    0.3060 o         1 MOL     -0.537521
     97 C31         0.8880   -1.4310   -2.2050 c3        1 MOL      0.127457
     98 C32        -0.5090   -1.8430   -2.6400 c3        1 MOL      0.024612
     99 C33         1.7000   -2.6350   -1.7640 c3        1 MOL     -0.308545
    100 C34        -0.5920   -2.7230   -3.8950 c3        1 MOL     -0.208558
    101 H42         0.2760    1.1850   -2.6240 hn        1 MOL      0.181363
    102 H43         0.3250   -0.7030   -0.3260 h1        1 MOL      0.136441
    103 H44         1.4390   -0.9490   -3.0100 hc        1 MOL     -0.000920
    104 H45        -1.0300   -0.9110   -2.8640 hc        1 MOL      0.023561
    105 H46        -1.0160   -2.3110   -1.7930 hc        1 MOL      0.023561
    106 H47         1.8270   -3.4030   -2.5300 hc        1 MOL      0.095735
    107 H48         2.6920   -2.4740   -1.3220 hc        1 MOL      0.095735
    108 H49         1.1010   -3.1780   -1.0350 hc        1 MOL      0.095735
    109 H50        -0.2700   -2.0590   -4.6940 hc        1 MOL      0.049933
    110 H51         0.1110   -3.5550   -3.8530 hc        1 MOL      0.049933
    111 H52        -1.5910   -3.1390   -4.0300 hc        1 MOL      0.049933
    112 N10         3.0130    1.0930   -0.9720 n         1 MOL     -0.410839
    113 C35         4.2450    1.5280   -0.5280 c3        1 MOL     -0.048129
    114 C36         5.3060    1.7380   -1.6070 c         1 MOL      0.654525
    115 O17         4.9070    2.0990   -2.7400 o         1 MOL     -0.525204
    116 C37         3.9020    2.8150    0.3000 c3        1 MOL      0.435217
    117 C38         5.1620    3.5430    0.7350 c3        1 MOL     -0.457061
    118 O18         3.0320    3.6420   -0.4340 oh        1 MOL     -0.586554
    119 H53         2.5970    1.7370   -1.6320 hn        1 MOL      0.214433
    120 H54         4.5980    0.8750    0.2640 h1        1 MOL      0.069450
    121 H55         3.3720    2.5390    1.2110 h1        1 MOL      0.016257
    122 H56         2.5710    4.1880    0.2110 ho        1 MOL      0.388618
    123 H57         5.7280    2.9800    1.4680 hc        1 MOL      0.106744
    124 H58         5.8610    3.7020   -0.0980 hc        1 MOL      0.106744
    125 H59         4.8030    4.4430    1.2310 hc        1 MOL      0.106744
    126 N11         6.5800    1.5400   -1.2810 n         1 MOL     -0.548003
    127 C39         7.6610    1.6190   -2.2490 c3        1 MOL     -0.054373
    128 C40         8.7300    0.5160   -2.1500 c         1 MOL      0.633153
    129 O19         9.0800   -0.1530   -3.1330 o         1 MOL     -0.549223
    130 C41         8.2950    2.9860   -2.1760 c3        1 MOL      0.431928
    131 C42         9.2340    3.4180   -3.1890 c3        1 MOL     -0.527372
    132 O20         9.0360    3.1780   -1.0180 oh        1 MOL     -0.582943
    133 H60         6.8400    1.2410   -0.3500 hn        1 MOL      0.288606
    134 H61         7.2410    1.5980   -3.2600 h1        1 MOL      0.084990
    135 H62         7.4220    3.6420   -2.1840 h1        1 MOL      0.006695
    136 H63         8.3780    3.6140   -0.4790 ho        1 MOL      0.357762
    137 H64        10.1420    2.8220   -3.3060 hc        1 MOL      0.139463
    138 H65         8.7710    3.4760   -4.1790 hc        1 MOL      0.139463
    139 H66         9.6100    4.3970   -2.8980 hc        1 MOL      0.139463
    140 N12         9.3030    0.3130   -0.9360 n         1 MOL     -0.519400
    141 C43        10.3930   -0.6430   -0.6080 c3        1 MOL      0.059286
    142 C44        10.1110   -1.3540    0.7650 c         1 MOL      0.541595
    143 O21         9.9970   -0.7280    1.7820 o         1 MOL     -0.504671
    144 C45        11.8300    0.0120   -0.5550 c3        1 MOL     -0.200971
    145 C46        13.0560   -0.9070   -0.5860 c3        1 MOL      0.158869
    146 C47        14.2900   -0.0940   -0.2810 c3        1 MOL     -0.045632
    147 C48        15.6250   -0.8570   -0.5160 c3        1 MOL      0.191776
    148 N13        16.7170   -0.1010   -1.1350 n4        1 MOL     -0.403447
    149 H67         9.1470    1.0900   -0.3100 hn        1 MOL      0.294730
    150 H68        10.4160   -1.4690   -1.3190 h1        1 MOL      0.059286
    151 H69        11.7880    0.4910    0.4220 hc        1 MOL      0.077781
    152 H70        11.8980    0.7380   -1.3630 hc        1 MOL      0.077781
    153 H71        13.1890   -1.2760   -1.6090 hc        1 MOL     -0.026286
    154 H72        12.9560   -1.7560    0.0710 hc        1 MOL     -0.026286
    155 H73        14.3200    0.3290    0.7190 hc        1 MOL      0.016641
    156 H74        14.2390    0.6840   -1.0470 hc        1 MOL      0.016641
    157 H75        15.4140   -1.7420   -1.1210 hx        1 MOL      0.041804
    158 H76        15.8880   -1.2820    0.4570 hx        1 MOL      0.041804
    159 H77        17.4160   -0.7140   -1.5210 hn        1 MOL      0.287429
    160 H78        16.3990    0.5050   -1.8820 hn        1 MOL      0.287429
    161 H79        17.1950    0.4700   -0.4410 hn        1 MOL      0.287429
    162 N14         9.9480   -2.6470    0.7190 n         1 MOL     -0.329168
    163 C49         9.3060   -3.3870    1.7720 c3        1 MOL      0.171309
    164 C50         7.7510   -3.3770    1.7340 c         1 MOL      0.349930
    165 O22         7.0360   -3.0020    2.6820 o         1 MOL     -0.501197
    166 C51         9.8600   -4.8130    2.0570 c3        1 MOL     -0.048371
    167 C52        11.3980   -4.8960    2.4630 c3        1 MOL     -0.438774
    168 C53        11.7730   -6.3100    2.1450 c         1 MOL      0.749524
    169 O23        11.0890   -7.3050    2.5070 o         1 MOL     -0.678632
    170 O24        12.8310   -6.4660    1.4080 o         1 MOL     -0.678632
    171 H80        10.2680   -3.1850   -0.0710 hn        1 MOL      0.230076
    172 H81         9.5120   -2.7750    2.6560 h1        1 MOL      0.017559
    173 H82         9.6900   -5.4230    1.1720 hc        1 MOL      0.092963
    174 H83         9.2830   -5.2870    2.8460 hc        1 MOL      0.092963
    175 H84        11.5360   -4.8280    3.5500 hc        1 MOL      0.111061
    176 H85        11.8850   -4.1190    1.8810 hc        1 MOL      0.111061
    177 N15         7.0360   -3.8550    0.6560 n         1 MOL     -0.403119
    178 C54         7.5760   -4.6640   -0.3900 c3        1 MOL     -0.021436
    179 H86         6.8190   -5.3700   -0.7310 h1        1 MOL      0.038897
    180 H87         7.8790   -4.0280   -1.2220 h1        1 MOL      0.038897
    181 H88         8.4410   -5.2120   -0.0170 h1        1 MOL      0.038897
    182 H89         6.0240   -3.7820    0.6930 hn        1 MOL      0.315842
    183 Ca1        -6.7290   -4.6950    0.3840 Ca        1 MOL      1.806370
    184 O25        -5.6640   -6.2070    2.3190 oh        1 MOL     -0.870694
    185 H90        -5.3500   -6.0680    3.2140 ho        1 MOL      0.429407
    186 H91        -5.0060   -6.7850    1.9290 ho        1 MOL      0.429407
    187 O26        -5.3500   -3.1970   -1.4400 oh        1 MOL     -0.870694
    188 H92        -4.8800   -2.4080   -1.7200 ho        1 MOL      0.429407
    189 H93        -5.9490   -3.3780   -2.1610 ho        1 MOL      0.429407
    190 O27        -7.9470   -5.4450   -2.0780 oh        1 MOL     -0.870694
    191 H94        -8.1580   -5.1200   -2.9510 ho        1 MOL      0.429407
    192 H95        -8.7400   -5.9160   -1.7960 ho        1 MOL      0.429407
    193 O28        -7.6350   -7.4490    1.0500 oh        1 MOL     -0.870694
    194 H96        -6.9230   -7.3330    1.6720 ho        1 MOL      0.429407
    195 H97        -8.4110   -7.5840    1.5940 ho        1 MOL      0.429407
@<TRIPOS>BOND
     1    1    2 1   
     2    1    4 1   
     3    1    5 1   
     4    1    6 1   
     5    2    3 2   
     6    2    7 1   
     7    7    8 1   
     8    7   15 1   
     9    8    9 1   
    10    8   11 1   
    11    8   16 1   
    12    9   10 2   
    13    9   19 1   
    14   11   12 1   
    15   11   17 1   
    16   11   18 1   
    17   12   13 1   
    18   12   14 1   
    19   19   20 1   
    20   19   28 1   
    21   20   21 1   
    22   20   23 1   
    23   20   29 1   
    24   21   22 2   
    25   21   41 1   
    26   23   24 1   
    27   23   30 1   
    28   23   31 1   
    29   24   25 1   
    30   24   32 1   
    31   24   33 1   
    32   25   26 1   
    33   25   34 1   
    34   25   35 1   
    35   26   27 1   
    36   26   36 1   
    37   26   37 1   
    38   27   38 1   
    39   27   39 1   
    40   27   40 1   
    41   41   42 1   
    42   41   49 1   
    43   42   43 1   
    44   42   45 1   
    45   42   50 1   
    46   43   44 2   
    47   43   53 1   
    48   45   46 1   
    49   45   51 1   
    50   45   52 1   
    51   46   47 1   
    52   46   48 1   
    53   53   54 1   
    54   53   57 1   
    55   54   55 1   
    56   54   58 1   
    57   54   59 1   
    58   55   56 2   
    59   55   60 1   
    60   60   61 1   
    61   60   68 1   
    62   61   62 1   
    63   61   64 1   
    64   61   69 1   
    65   62   63 2   
    66   62   72 1   
    67   64   65 1   
    68   64   70 1   
    69   64   71 1   
    70   65   66 1   
    71   65   67 1   
    72   72   73 1   
    73   72   76 1   
    74   73   74 1   
    75   73   77 1   
    76   73   78 1   
    77   74   75 2   
    78   74   79 1   
    79   79   80 1   
    80   79   86 1   
    81   80   81 1   
    82   80   83 1   
    83   80   87 1   
    84   81   82 2   
    85   81   93 1   
    86   83   84 1   
    87   83   85 1   
    88   83   88 1   
    89   84   90 1   
    90   84   91 1   
    91   84   92 1   
    92   85   89 1   
    93   93   94 1   
    94   93  101 1   
    95   94   95 1   
    96   94   97 1   
    97   94  102 1   
    98   95   96 2   
    99   95  112 1   
   100   97   98 1   
   101   97   99 1   
   102   97  103 1   
   103   98  100 1   
   104   98  104 1   
   105   98  105 1   
   106   99  106 1   
   107   99  107 1   
   108   99  108 1   
   109  100  109 1   
   110  100  110 1   
   111  100  111 1   
   112  112  113 1   
   113  112  119 1   
   114  113  114 1   
   115  113  116 1   
   116  113  120 1   
   117  114  115 2   
   118  114  126 1   
   119  116  117 1   
   120  116  118 1   
   121  116  121 1   
   122  117  123 1   
   123  117  124 1   
   124  117  125 1   
   125  118  122 1   
   126  126  127 1   
   127  126  133 1   
   128  127  128 1   
   129  127  130 1   
   130  127  134 1   
   131  128  129 2   
   132  128  140 1   
   133  130  131 1   
   134  130  132 1   
   135  130  135 1   
   136  131  137 1   
   137  131  138 1   
   138  131  139 1   
   139  132  136 1   
   140  140  141 1   
   141  140  149 1   
   142  141  142 1   
   143  141  144 1   
   144  141  150 1   
   145  142  143 2   
   146  142  162 1   
   147  144  145 1   
   148  144  151 1   
   149  144  152 1   
   150  145  146 1   
   151  145  153 1   
   152  145  154 1   
   153  146  147 1   
   154  146  155 1   
   155  146  156 1   
   156  147  148 1   
   157  147  157 1   
   158  147  158 1   
   159  148  159 1   
   160  148  160 1   
   161  148  161 1   
   162  162  163 1   
   163  162  171 1   
   164  163  164 1   
   165  163  166 1   
   166  163  172 1   
   167  164  165 2   
   168  164  177 1   
   169  166  167 1   
   170  166  173 1   
   171  166  174 1   
   172  167  168 1   
   173  167  175 1   
   174  167  176 1   
   175  168  169 1   
   176  168  170 1   
   177  177  178 1   
   178  177  182 1   
   179  178  179 1   
   180  178  180 1   
   181  178  181 1   
   182  184  185 1   
   183  184  186 1   
   184  187  188 1   
   185  187  189 1   
   186  190  191 1   
   187  190  192 1   
   188  193  194 1   
   189  193  195 1   
@<TRIPOS>SUBSTRUCTURE
     1 MOL         1 TEMP              0 ****  ****    0 ROOT
