@<TRIPOS>MOLECULE
MOL
  201   193     1     0     0
SMALL
resp


@<TRIPOS>ATOM
      1 C1          2.0780    5.1720    6.2390 c3        1 MOL     -0.402870
      2 C2          1.0330    4.9080    5.2110 c         1 MOL      0.828338
      3 O1         -0.1430    5.0670    5.4200 o         1 MOL     -0.668420
      4 H1          1.6880    5.8670    6.9830 hc        1 MOL      0.102844
      5 H2          2.3540    4.2360    6.7270 hc        1 MOL      0.102844
      6 H3          2.9570    5.6060    5.7630 hc        1 MOL      0.102844
      7 N1          1.3530    4.6260    3.9730 n         1 MOL     -0.758428
      8 C3          0.4480    4.7120    2.8280 c3        1 MOL      0.329256
      9 C4         -0.1310    3.3820    2.3890 c         1 MOL      0.504225
     10 O2          0.5060    2.3170    2.5030 o         1 MOL     -0.517317
     11 C5          1.0800    5.4470    1.6220 c3        1 MOL     -0.017278
     12 C6          2.5840    5.3280    1.4000 c         1 MOL      0.544860
     13 O3          3.4660    5.5090    2.2710 o         1 MOL     -0.645798
     14 O4          2.9510    4.9730    0.2120 o         1 MOL     -0.645798
     15 H4          2.3010    4.3510    3.7590 hn        1 MOL      0.358181
     16 H5         -0.3550    5.3350    3.2210 h1        1 MOL      0.008114
     17 H6          0.7920    6.4930    1.7200 hc        1 MOL     -0.031290
     18 H7          0.5720    5.0530    0.7370 hc        1 MOL     -0.031290
     19 N2         -1.3320    3.4120    1.8320 n         1 MOL     -0.505465
     20 C7         -2.0890    2.2080    1.3990 c3        1 MOL      0.109445
     21 C8         -2.6870    2.4090    0.0070 c         1 MOL      0.537414
     22 O5         -3.8520    2.0070   -0.2130 o         1 MOL     -0.523884
     23 C9         -3.0300    1.6830    2.5310 c3        1 MOL     -0.262544
     24 C10        -4.1670    2.6240    2.9240 c3        1 MOL      0.037824
     25 C11        -5.0750    2.0450    4.0470 c3        1 MOL     -0.101469
     26 C12        -5.9350    3.0580    4.7630 c3        1 MOL      0.006451
     27 N3         -7.0350    2.4230    5.5260 n4        1 MOL     -0.293109
     28 H8         -1.7590    4.3040    1.6580 hn        1 MOL      0.251281
     29 H9         -1.3800    1.4050    1.2040 h1        1 MOL      0.067415
     30 H10        -2.3250    1.4980    3.3340 hc        1 MOL      0.132593
     31 H11        -3.4540    0.7810    2.1020 hc        1 MOL      0.132593
     32 H12        -4.7620    2.7790    2.0210 hc        1 MOL      0.029241
     33 H13        -3.7680    3.5790    3.2590 hc        1 MOL      0.029241
     34 H14        -4.5280    1.5750    4.8730 hc        1 MOL      0.054161
     35 H15        -5.7710    1.2890    3.6750 hc        1 MOL      0.054161
     36 H16        -6.2620    3.8740    4.1170 hx        1 MOL      0.095890
     37 H17        -5.2780    3.5020    5.5090 hx        1 MOL      0.095890
     38 H18        -6.7850    1.5000    5.8500 hn        1 MOL      0.304374
     39 H19        -7.3830    3.0610    6.2280 hn        1 MOL      0.304374
     40 H20        -7.7900    2.1670    4.9070 hn        1 MOL      0.304374
     41 N4         -1.9120    3.0650   -0.8970 n         1 MOL     -0.523165
     42 C13        -2.3160    3.3510   -2.2830 c3        1 MOL      0.289952
     43 C14        -1.6890    2.2760   -3.2040 c         1 MOL      0.504147
     44 O6         -0.5740    1.7990   -2.8960 o         1 MOL     -0.580731
     45 C15        -1.9340    4.8230   -2.7180 c3        1 MOL     -0.360713
     46 C16        -0.3660    5.1120   -2.6030 c         1 MOL      0.608390
     47 O7          0.2830    4.7950   -3.6330 o         1 MOL     -0.675875
     48 O8          0.2500    5.5330   -1.5990 o         1 MOL     -0.675875
     49 H21        -1.0140    3.4400   -0.6270 hn        1 MOL      0.363808
     50 H22        -3.3800    3.3050   -2.5220 h1        1 MOL     -0.005467
     51 H23        -2.4390    5.5290   -2.0720 hc        1 MOL      0.101700
     52 H24        -2.1740    5.0390   -3.7530 hc        1 MOL      0.101700
     53 N5         -2.2620    1.9480   -4.4170 n         1 MOL     -0.493496
     54 C17        -3.6020    2.3980   -4.7840 c3        1 MOL      0.009672
     55 C18        -4.7680    1.7820   -4.0600 c         1 MOL      0.532189
     56 O9         -5.5840    2.4530   -3.4330 o         1 MOL     -0.532166
     57 H25        -1.8670    1.1390   -4.8740 hn        1 MOL      0.339585
     58 H26        -3.7940    2.2890   -5.8610 h1        1 MOL      0.081571
     59 H27        -3.6440    3.4930   -4.7790 h1        1 MOL      0.081571
     60 N6         -4.8370    0.4360   -4.1830 n         1 MOL     -0.443193
     61 C19        -6.0590   -0.3820   -3.8030 c3        1 MOL      0.043478
     62 C20        -5.5760   -1.7610   -3.2810 c         1 MOL      0.377689
     63 O10        -4.4970   -2.2410   -3.6450 o         1 MOL     -0.418229
     64 C21        -6.8630   -0.6100   -5.0670 c3        1 MOL     -0.106956
     65 C22        -6.0960   -1.1520   -6.3150 c         1 MOL      0.629882
     66 O11        -6.1450   -2.4010   -6.5010 o         1 MOL     -0.692226
     67 O12        -5.4900   -0.2860   -6.9980 o         1 MOL     -0.692226
     68 H28        -4.0150   -0.0880   -4.4450 hn        1 MOL      0.297187
     69 H29        -6.7640    0.0220   -3.0650 h1        1 MOL      0.051803
     70 H30        -7.1430    0.4040   -5.3640 hc        1 MOL      0.013492
     71 H31        -7.7870   -1.1430   -4.8670 hc        1 MOL      0.013492
     72 N7         -6.4320   -2.4600   -2.5510 n         1 MOL     -0.338293
     73 C23        -6.1520   -3.6750   -1.7970 c3        1 MOL      0.076193
     74 C24        -5.7830   -3.4980   -0.3120 c         1 MOL      0.555118
     75 O13        -4.6620   -3.7470    0.1260 o         1 MOL     -0.477467
     76 H32        -7.3470   -2.0350   -2.4680 hn        1 MOL      0.263617
     77 H33        -5.2680   -4.2220   -2.1270 h1        1 MOL      0.035369
     78 H34        -6.9970   -4.3620   -1.7990 h1        1 MOL      0.035369
     79 N8         -6.7770   -2.9430    0.4570 n         1 MOL     -0.598497
     80 C25        -6.5290   -2.8840    1.9300 c3        1 MOL     -0.043079
     81 C26        -5.3240   -1.9890    2.3070 c         1 MOL      0.515816
     82 O14        -5.2300   -0.8530    1.8780 o         1 MOL     -0.490752
     83 C27        -7.8060   -2.3090    2.5910 c3        1 MOL      0.222371
     84 C28        -8.2060   -0.8450    2.3360 c3        1 MOL     -0.315898
     85 O15        -8.9730   -3.0410    2.2510 oh        1 MOL     -0.567907
     86 H35        -7.6810   -2.8280    0.0350 hn        1 MOL      0.364397
     87 H36        -6.3920   -3.9010    2.3030 h1        1 MOL      0.097195
     88 H37        -7.6350   -2.3920    3.6620 h1        1 MOL     -0.009040
     89 H38        -8.8720   -3.9270    2.6030 ho        1 MOL      0.383414
     90 H39        -9.2340   -0.6850    2.6450 hc        1 MOL      0.108919
     91 H40        -7.5620   -0.1360    2.8490 hc        1 MOL      0.108919
     92 H41        -8.3040   -0.6550    1.2680 hc        1 MOL      0.108919
     93 N9         -4.3940   -2.4520    3.1020 n         1 MOL     -0.357333
     94 C29        -3.1810   -1.7700    3.4620 c3        1 MOL     -0.008405
     95 C30        -2.0860   -1.9560    2.3290 c         1 MOL      0.642703
     96 O16        -1.2420   -1.0960    2.2270 o         1 MOL     -0.532272
     97 C31        -2.7310   -2.4280    4.7840 c3        1 MOL      0.124457
     98 C32        -3.5670   -2.0560    6.0490 c3        1 MOL      0.104370
     99 C33        -1.2860   -2.2170    5.2080 c3        1 MOL     -0.407327
    100 C34        -3.3840   -3.0200    7.2290 c3        1 MOL     -0.325537
    101 H42        -4.5120   -3.3870    3.4810 hn        1 MOL      0.213362
    102 H43        -3.4180   -0.7270    3.6590 h1        1 MOL      0.013055
    103 H44        -2.8010   -3.5160    4.6830 hc        1 MOL      0.036505
    104 H45        -4.5850   -2.1510    5.6860 hc        1 MOL     -0.024605
    105 H46        -3.5350   -1.0290    6.4230 hc        1 MOL     -0.024605
    106 H47        -0.8940   -2.9660    5.9010 hc        1 MOL      0.116096
    107 H48        -0.6570   -2.3770    4.3320 hc        1 MOL      0.116096
    108 H49        -1.2270   -1.2220    5.6540 hc        1 MOL      0.116096
    109 H50        -2.3370   -3.0500    7.5340 hc        1 MOL      0.084114
    110 H51        -4.0240   -2.6880    8.0540 hc        1 MOL      0.084114
    111 H52        -3.5230   -4.0310    6.8520 hc        1 MOL      0.084114
    112 N10        -2.1090   -2.9970    1.4570 n         1 MOL     -0.611413
    113 C35        -1.0950   -3.1910    0.3730 c3        1 MOL      0.089190
    114 C36        -0.5040   -4.6070    0.1870 c         1 MOL      0.645542
    115 O17        -1.1460   -5.6070    0.5040 o         1 MOL     -0.552513
    116 C37        -1.7920   -2.7490   -0.9410 c3        1 MOL      0.245985
    117 C38        -2.3410   -1.3320   -0.9830 c3        1 MOL      0.002837
    118 O18        -0.8740   -2.7940   -2.0760 oh        1 MOL     -0.637309
    119 H53        -2.8880   -3.6350    1.4610 hn        1 MOL      0.283898
    120 H54        -0.2000   -2.6160    0.5830 h1        1 MOL      0.081665
    121 H55        -2.5810   -3.4700   -1.1280 h1        1 MOL      0.017080
    122 H56        -1.4020   -3.0640   -2.8380 ho        1 MOL      0.386975
    123 H57        -3.1370   -1.2210   -0.2420 hc        1 MOL      0.020992
    124 H58        -1.5680   -0.5680   -0.8600 hc        1 MOL      0.020992
    125 H59        -2.7210   -1.1450   -1.9860 hc        1 MOL      0.020992
    126 N11         0.6750   -4.6410   -0.4260 n         1 MOL     -0.641389
    127 C39         1.4960   -5.8340   -0.6210 c3        1 MOL     -0.020948
    128 C40         2.9260   -5.8390   -0.1640 c         1 MOL      0.788156
    129 O19         3.4130   -6.6260    0.6060 o         1 MOL     -0.591469
    130 C41         1.2830   -6.3550   -2.0500 c3        1 MOL      0.352387
    131 C42         1.5680   -7.8720   -2.1650 c3        1 MOL     -0.323742
    132 O20         2.0840   -5.5750   -2.8840 oh        1 MOL     -0.617703
    133 H60         1.0440   -3.7610   -0.7700 hn        1 MOL      0.319380
    134 H61         1.1820   -6.5940    0.1090 h1        1 MOL      0.075725
    135 H62         0.2750   -6.2150   -2.4390 h1        1 MOL      0.033903
    136 H63         1.6340   -4.7330   -3.0310 ho        1 MOL      0.392677
    137 H64         1.5620   -8.1010   -3.2280 hc        1 MOL      0.085732
    138 H65         2.4760   -8.1220   -1.6210 hc        1 MOL      0.085732
    139 H66         0.8250   -8.4430   -1.5960 hc        1 MOL      0.085732
    140 N12         3.6600   -4.7980   -0.5520 n         1 MOL     -0.610996
    141 C43         5.0500   -4.5410   -0.1680 c3        1 MOL      0.069825
    142 C44         5.2800   -3.0200   -0.0690 c         1 MOL      0.626476
    143 O21         4.6290   -2.2440   -0.8120 o         1 MOL     -0.510614
    144 C45         6.0520   -5.2790   -1.0900 c3        1 MOL     -0.146962
    145 C46         7.5630   -5.1380   -0.7220 c3        1 MOL     -0.013267
    146 C47         8.5640   -5.7550   -1.7000 c3        1 MOL     -0.088749
    147 C48        10.0290   -5.6180   -1.3520 c3        1 MOL      0.180370
    148 N13        10.9520   -6.0340   -2.4170 n4        1 MOL     -0.219474
    149 H67         3.2960   -4.2020   -1.2840 hn        1 MOL      0.291207
    150 H68         5.2070   -4.8760    0.8560 h1        1 MOL      0.087250
    151 H69         5.8200   -4.9570   -2.1060 hc        1 MOL      0.075720
    152 H70         5.8870   -6.3460   -0.9730 hc        1 MOL      0.075720
    153 H71         7.7880   -5.7180    0.1830 hc        1 MOL      0.043046
    154 H72         7.6750   -4.0500   -0.7060 hc        1 MOL      0.043046
    155 H73         8.4530   -5.0520   -2.5280 hc        1 MOL      0.030609
    156 H74         8.3320   -6.7800   -1.9630 hc        1 MOL      0.030609
    157 H75        10.3060   -6.1510   -0.4460 hx        1 MOL      0.031368
    158 H76        10.1110   -4.5710   -1.0520 hx        1 MOL      0.031368
    159 H77        10.5950   -5.6810   -3.2900 hn        1 MOL      0.247464
    160 H78        11.8730   -5.6590   -2.2440 hn        1 MOL      0.247464
    161 H79        10.9760   -7.0300   -2.6040 hn        1 MOL      0.247464
    162 N14         6.1350   -2.5070    0.8680 n         1 MOL     -0.589334
    163 C49         6.7130   -1.0870    0.9340 c3        1 MOL      0.327183
    164 C50         5.5790   -0.0580    1.2730 c         1 MOL      0.278109
    165 O22         5.4010    0.9060    0.5790 o         1 MOL     -0.465998
    166 C51         7.9860   -0.7770    1.8080 c3        1 MOL     -0.030380
    167 C52         8.7580    0.4760    1.3590 c3        1 MOL     -0.250688
    168 C53        10.0640    0.7550    2.1940 c         1 MOL      0.716456
    169 O23        10.7610   -0.2090    2.5440 o         1 MOL     -0.665977
    170 O24        10.4340    1.9340    2.2750 o         1 MOL     -0.665977
    171 H80         6.6090   -3.1980    1.4400 hn        1 MOL      0.227843
    172 H81         6.9240   -0.7760   -0.0830 h1        1 MOL     -0.023161
    173 H82         8.6270   -1.6520    1.7470 hc        1 MOL      0.004964
    174 H83         7.7480   -0.6720    2.8740 hc        1 MOL      0.004964
    175 H84         8.0310    1.2630    1.5260 hc        1 MOL      0.069336
    176 H85         9.0700    0.4400    0.3110 hc        1 MOL      0.069336
    177 N15         4.8990   -0.2000    2.4600 n         1 MOL     -0.239520
    178 C54         5.0350   -1.1640    3.5490 c3        1 MOL     -0.164080
    179 H86         5.7140   -1.9610    3.2450 h1        1 MOL      0.082608
    180 H87         5.4350   -0.6630    4.4310 h1        1 MOL      0.082608
    181 H88         4.0590   -1.5880    3.7830 h1        1 MOL      0.082608
    182 H89         4.1200    0.4370    2.5780 hn        1 MOL      0.280023
    183 Ca1         2.8830    5.3410   -2.4240 Ca        1 MOL      1.702932
    184 O25         2.9310    7.7540   -1.4430 oh        1 MOL     -0.797710
    185 H90         3.3170    8.5920   -1.6990 ho        1 MOL      0.399203
    186 H91         2.3360    7.9760   -0.7300 ho        1 MOL      0.399203
    187 O26         4.9600    3.6320   -2.0000 oh        1 MOL     -0.797710
    188 H92         5.1660    2.8710   -2.5450 ho        1 MOL      0.399203
    189 H93         5.6570    3.6440   -1.3390 ho        1 MOL      0.399203
    190 O27         5.3340    6.3620   -3.0490 oh        1 MOL     -0.797710
    191 H94         6.1850    5.9180   -3.0130 ho        1 MOL      0.399203
    192 H95         5.2430    6.6260   -3.9610 ho        1 MOL      0.399203
    193 O28         3.6670    4.2530   -4.9610 oh        1 MOL     -0.797710
    194 H96         3.8440    4.5710   -5.8480 ho        1 MOL      0.399203
    195 H97         4.4150    3.6930   -4.7570 ho        1 MOL      0.399203
    196 O29         2.2930    6.8230   -4.4220 oh        1 MOL     -0.797710
    197 H98         1.4680    7.2930   -4.3360 ho        1 MOL      0.399203
    198 H99         2.6590    7.1140   -5.2510 ho        1 MOL      0.399203
    199 O30         2.1300    2.7260   -2.1080 oh        1 MOL     -0.797710
    200 H100        1.2000    2.5150   -2.1680 ho        1 MOL      0.399203
    201 H101        2.5690    1.8730   -2.1120 ho        1 MOL      0.399203
@<TRIPOS>BOND
     1    1    2 1   
     2    1    4 1   
     3    1    5 1   
     4    1    6 1   
     5    2    3 2   
     6    2    7 1   
     7    7    8 1   
     8    7   15 1   
     9    8    9 1   
    10    8   11 1   
    11    8   16 1   
    12    9   10 2   
    13    9   19 1   
    14   11   12 1   
    15   11   17 1   
    16   11   18 1   
    17   12   13 1   
    18   12   14 1   
    19   19   20 1   
    20   19   28 1   
    21   20   21 1   
    22   20   23 1   
    23   20   29 1   
    24   21   22 2   
    25   21   41 1   
    26   23   24 1   
    27   23   30 1   
    28   23   31 1   
    29   24   25 1   
    30   24   32 1   
    31   24   33 1   
    32   25   26 1   
    33   25   34 1   
    34   25   35 1   
    35   26   27 1   
    36   26   36 1   
    37   26   37 1   
    38   27   38 1   
    39   27   39 1   
    40   27   40 1   
    41   41   42 1   
    42   41   49 1   
    43   42   43 1   
    44   42   45 1   
    45   42   50 1   
    46   43   44 2   
    47   43   53 1   
    48   45   46 1   
    49   45   51 1   
    50   45   52 1   
    51   46   47 1   
    52   46   48 1   
    53   53   54 1   
    54   53   57 1   
    55   54   55 1   
    56   54   58 1   
    57   54   59 1   
    58   55   56 2   
    59   55   60 1   
    60   60   61 1   
    61   60   68 1   
    62   61   62 1   
    63   61   64 1   
    64   61   69 1   
    65   62   63 2   
    66   62   72 1   
    67   64   65 1   
    68   64   70 1   
    69   64   71 1   
    70   65   66 1   
    71   65   67 1   
    72   72   73 1   
    73   72   76 1   
    74   73   74 1   
    75   73   77 1   
    76   73   78 1   
    77   74   75 2   
    78   74   79 1   
    79   79   80 1   
    80   79   86 1   
    81   80   81 1   
    82   80   83 1   
    83   80   87 1   
    84   81   82 2   
    85   81   93 1   
    86   83   84 1   
    87   83   85 1   
    88   83   88 1   
    89   84   90 1   
    90   84   91 1   
    91   84   92 1   
    92   85   89 1   
    93   93   94 1   
    94   93  101 1   
    95   94   95 1   
    96   94   97 1   
    97   94  102 1   
    98   95   96 2   
    99   95  112 1   
   100   97   98 1   
   101   97   99 1   
   102   97  103 1   
   103   98  100 1   
   104   98  104 1   
   105   98  105 1   
   106   99  106 1   
   107   99  107 1   
   108   99  108 1   
   109  100  109 1   
   110  100  110 1   
   111  100  111 1   
   112  112  113 1   
   113  112  119 1   
   114  113  114 1   
   115  113  116 1   
   116  113  120 1   
   117  114  115 2   
   118  114  126 1   
   119  116  117 1   
   120  116  118 1   
   121  116  121 1   
   122  117  123 1   
   123  117  124 1   
   124  117  125 1   
   125  118  122 1   
   126  126  127 1   
   127  126  133 1   
   128  127  128 1   
   129  127  130 1   
   130  127  134 1   
   131  128  129 2   
   132  128  140 1   
   133  130  131 1   
   134  130  132 1   
   135  130  135 1   
   136  131  137 1   
   137  131  138 1   
   138  131  139 1   
   139  132  136 1   
   140  140  141 1   
   141  140  149 1   
   142  141  142 1   
   143  141  144 1   
   144  141  150 1   
   145  142  143 2   
   146  142  162 1   
   147  144  145 1   
   148  144  151 1   
   149  144  152 1   
   150  145  146 1   
   151  145  153 1   
   152  145  154 1   
   153  146  147 1   
   154  146  155 1   
   155  146  156 1   
   156  147  148 1   
   157  147  157 1   
   158  147  158 1   
   159  148  159 1   
   160  148  160 1   
   161  148  161 1   
   162  162  163 1   
   163  162  171 1   
   164  163  164 1   
   165  163  166 1   
   166  163  172 1   
   167  164  165 2   
   168  164  177 1   
   169  166  167 1   
   170  166  173 1   
   171  166  174 1   
   172  167  168 1   
   173  167  175 1   
   174  167  176 1   
   175  168  169 1   
   176  168  170 1   
   177  177  178 1   
   178  177  182 1   
   179  178  179 1   
   180  178  180 1   
   181  178  181 1   
   182  184  185 1   
   183  184  186 1   
   184  187  188 1   
   185  187  189 1   
   186  190  191 1   
   187  190  192 1   
   188  193  194 1   
   189  193  195 1   
   190  196  197 1   
   191  196  198 1   
   192  199  200 1   
   193  199  201 1   
@<TRIPOS>SUBSTRUCTURE
     1 MOL         1 TEMP              0 ****  ****    0 ROOT
