@<TRIPOS>MOLECULE
MOL
  178   175     1     0     0
SMALL
resp


@<TRIPOS>ATOM
      1 C1          1.2940   -5.8270    3.6880 c3        1 MOL     -0.391156
      2 C2          2.5780   -5.7710    2.9340 c         1 MOL      0.675015
      3 O1          2.5590   -6.2950    1.8410 o         1 MOL     -0.572660
      4 H1          1.2040   -6.7950    4.1800 hc        1 MOL      0.087808
      5 H2          1.2770   -5.0360    4.4380 hc        1 MOL      0.087808
      6 H3          0.4610   -5.6910    2.9980 hc        1 MOL      0.087808
      7 N1          3.5990   -5.1710    3.4450 n         1 MOL     -0.492733
      8 C3          4.8530   -5.0400    2.7060 c3        1 MOL      0.000046
      9 C4          4.7100   -4.2720    1.3600 c         1 MOL      0.702161
     10 O2          3.9900   -3.2870    1.3780 o         1 MOL     -0.554780
     11 C5          5.9140   -4.2720    3.4870 c3        1 MOL     -0.183701
     12 C6          7.2170   -3.9950    2.6790 c         1 MOL      0.692331
     13 O3          7.7630   -2.8650    2.8210 o         1 MOL     -0.702127
     14 O4          7.7940   -4.9470    2.0850 o         1 MOL     -0.702127
     15 H4          3.5590   -4.8490    4.4000 hn        1 MOL      0.305865
     16 H5          5.2300   -6.0510    2.5340 h1        1 MOL      0.055753
     17 H6          6.1400   -4.7980    4.4130 hc        1 MOL      0.025020
     18 H7          5.4470   -3.3270    3.7710 hc        1 MOL      0.025020
     19 N2          5.3450   -4.8280    0.2690 n         1 MOL     -0.687910
     20 C7          5.2910   -4.1900   -1.0430 c3        1 MOL      0.598574
     21 C8          3.9480   -4.4490   -1.7860 c         1 MOL      0.325910
     22 O5          3.3060   -5.4720   -1.5690 o         1 MOL     -0.523946
     23 C9          6.4660   -4.8490   -1.8640 c3        1 MOL     -0.463593
     24 H8          5.8640   -5.6850    0.3830 hn        1 MOL      0.318704
     25 H9          5.5130   -3.1170   -1.0090 h1        1 MOL     -0.045672
     26 H10         6.4200   -4.4690   -2.8780 hc        1 MOL      0.112686
     27 H11         7.4240   -4.6240   -1.3880 hc        1 MOL      0.112686
     28 H12         6.3590   -5.9380   -1.8320 hc        1 MOL      0.112686
     29 N3          3.5720   -3.5730   -2.7060 n         1 MOL     -0.365302
     30 C10         4.3530   -2.4100   -3.2260 c3        1 MOL      0.039539
     31 C11         4.2510   -1.1450   -2.3640 c         1 MOL      0.528657
     32 O6          3.2970   -0.8800   -1.6060 o         1 MOL     -0.592622
     33 C12         3.8720   -1.9690   -4.6390 c3        1 MOL     -0.201942
     34 C13         2.3600   -1.6370   -4.6200 c         1 MOL      0.621037
     35 O7          1.5240   -1.8670   -3.6740 o         1 MOL     -0.651961
     36 O8          1.9040   -1.1870   -5.7230 o         1 MOL     -0.651961
     37 H13         2.6440   -3.7430   -3.0520 hn        1 MOL      0.271048
     38 H14         5.3980   -2.7060   -3.2810 h1        1 MOL      0.038675
     39 H15         4.1130   -2.7780   -5.3240 hc        1 MOL      0.055040
     40 H16         4.3610   -1.0720   -5.0140 hc        1 MOL      0.055040
     41 N4          5.3280   -0.3360   -2.5490 n         1 MOL     -0.357654
     42 C14         5.3580    1.0920   -2.1540 c3        1 MOL     -0.012304
     43 C15         6.6420    1.3930   -1.3040 c         1 MOL      0.613170
     44 O9          7.4710    0.5010   -1.1080 o         1 MOL     -0.537081
     45 H17         6.0080   -0.5490   -3.2620 hn        1 MOL      0.241939
     46 H18         4.5340    1.2940   -1.4820 h1        1 MOL      0.079074
     47 H19         5.3280    1.8150   -2.9650 h1        1 MOL      0.079074
     48 N5          6.8110    2.6220   -0.9200 n         1 MOL     -0.591744
     49 C16         5.8980    3.6560   -0.6520 c3        1 MOL      0.203850
     50 C17         5.6410    3.7120    0.8560 c         1 MOL      0.597034
     51 O10         6.4900    3.5310    1.7210 o         1 MOL     -0.528513
     52 C18         6.3770    5.0250   -1.2130 c3        1 MOL     -0.152237
     53 C19         5.2290    6.0310   -1.3410 c         1 MOL      0.619618
     54 N6          5.5610    7.2820   -1.2610 n         1 MOL     -0.800770
     55 O11         4.0540    5.7230   -1.5100 o         1 MOL     -0.527461
     56 H20         7.7160    2.7610   -0.4960 hn        1 MOL      0.301432
     57 H21         5.0090    3.4620   -1.2510 h1        1 MOL      0.001566
     58 H22         6.8880    4.8440   -2.1650 hc        1 MOL      0.041493
     59 H23         7.1390    5.4040   -0.5400 hc        1 MOL      0.041493
     60 H24         6.5450    7.5200   -1.1430 hn        1 MOL      0.377294
     61 H25         4.7850    7.9130   -1.3930 hn        1 MOL      0.377294
     62 N7          4.4040    3.9330    1.3190 n         1 MOL     -0.425745
     63 C20         4.1270    4.4140    2.6910 c3        1 MOL      0.052064
     64 C21         2.8400    5.2030    2.8100 c         1 MOL      0.365873
     65 O12         2.9100    6.3350    3.2970 o         1 MOL     -0.527257
     66 H26         3.6800    4.0090    0.6160 hn        1 MOL      0.237426
     67 H27         4.9340    5.0620    3.0400 h1        1 MOL      0.057347
     68 H28         4.1820    3.5270    3.3230 h1        1 MOL      0.057347
     69 N8          1.8730    4.7570    2.1500 n         1 MOL     -0.181669
     70 C22         0.6510    5.4100    1.8350 c3        1 MOL      0.082100
     71 C23        -0.4510    4.3290    1.5540 c         1 MOL      0.353140
     72 O13        -0.0920    3.1870    1.3350 o         1 MOL     -0.489625
     73 C24         0.7720    6.3280    0.5600 c3        1 MOL      0.353705
     74 C25         1.9720    7.2990    0.6480 c3        1 MOL     -0.486963
     75 O14         0.7730    5.5290   -0.6090 oh        1 MOL     -0.584916
     76 H29         1.9620    3.8280    1.7500 hn        1 MOL      0.199543
     77 H30         0.3060    6.1020    2.6060 h1        1 MOL      0.027637
     78 H31        -0.0990    6.9590    0.3740 h1        1 MOL     -0.018359
     79 H32         0.1540    5.9410   -1.2080 ho        1 MOL      0.416122
     80 H33         2.0720    7.8390    1.5900 hc        1 MOL      0.123138
     81 H34         2.9200    6.7580    0.6400 hc        1 MOL      0.123138
     82 H35         2.0860    7.9300   -0.2340 hc        1 MOL      0.123138
     83 N9         -1.6730    4.7570    1.3740 n         1 MOL     -0.409591
     84 C26        -2.7400    3.9390    0.9530 c3        1 MOL     -0.113019
     85 C27        -2.7680    3.9060   -0.5710 c         1 MOL      0.517749
     86 O15        -3.0740    4.8860   -1.2360 o         1 MOL     -0.581940
     87 C28        -4.0390    4.2300    1.7800 c3        1 MOL      0.331109
     88 C29        -4.9860    3.0120    1.5230 c3        1 MOL      0.138464
     89 C30        -3.6650    4.4480    3.2560 c3        1 MOL     -0.459024
     90 C31        -6.4900    3.3730    1.5710 c3        1 MOL     -0.272140
     91 H36        -1.7360    5.7720    1.4030 hn        1 MOL      0.271308
     92 H37        -2.4510    2.9280    1.2240 h1        1 MOL      0.258207
     93 H38        -4.4090    5.1690    1.3590 hc        1 MOL     -0.047305
     94 H39        -4.7740    2.2810    2.3120 hc        1 MOL     -0.059011
     95 H40        -4.7450    2.6030    0.5480 hc        1 MOL     -0.059011
     96 H41        -2.9740    3.6410    3.4860 hc        1 MOL      0.103217
     97 H42        -3.2020    5.4360    3.3280 hc        1 MOL      0.103217
     98 H43        -4.5600    4.4070    3.8860 hc        1 MOL      0.103217
     99 H44        -6.8850    3.5080    2.5780 hc        1 MOL      0.049221
    100 H45        -6.5890    4.2980    1.0050 hc        1 MOL      0.049221
    101 H46        -7.0710    2.5460    1.1450 hc        1 MOL      0.049221
    102 N10        -2.6790    2.6960   -1.1370 n         1 MOL     -0.275193
    103 C32        -3.1460    2.2660   -2.4550 c3        1 MOL     -0.003310
    104 C33        -4.1430    1.1340   -2.4980 c         1 MOL      0.502587
    105 O16        -4.7130    0.8860   -3.5100 o         1 MOL     -0.558665
    106 C34        -1.8590    1.9160   -3.3320 c3        1 MOL     -0.311353
    107 C35        -0.9630    0.8290   -2.7350 c         1 MOL      1.030710
    108 O17        -1.2830   -0.3580   -2.8320 o         1 MOL     -0.853155
    109 O18         0.2100    1.1670   -2.4430 o         1 MOL     -0.853155
    110 H47        -2.5610    1.9670   -0.4470 hn        1 MOL      0.128269
    111 H48        -3.6370    3.1170   -2.9280 h1        1 MOL      0.098997
    112 H49        -1.2840    2.8210   -3.5050 hc        1 MOL      0.085419
    113 H50        -2.1490    1.5080   -4.3030 hc        1 MOL      0.085419
    114 N11        -4.5100    0.4060   -1.4590 n         1 MOL     -0.300765
    115 C36        -5.6360   -0.5250   -1.4940 c3        1 MOL      0.128854
    116 C37        -5.5450   -1.5100   -0.3450 c         1 MOL      0.357311
    117 O19        -6.2420   -1.3520    0.6320 o         1 MOL     -0.481403
    118 C38        -7.0370    0.2230   -1.4870 c3        1 MOL     -0.333437
    119 C39        -8.1850   -0.5330   -2.0910 ca        1 MOL      0.157736
    120 C40        -8.9670   -1.3970   -1.2380 ca        1 MOL     -0.159527
    121 C41        -8.4970   -0.3770   -3.3980 ca        1 MOL     -0.159527
    122 C42       -10.0830   -2.0550   -1.7350 ca        1 MOL     -0.143980
    123 C43        -9.6120   -1.0920   -3.9410 ca        1 MOL     -0.143980
    124 C44       -10.3910   -1.8940   -3.1000 ca        1 MOL     -0.111655
    125 H51        -4.0030    0.4200   -0.5830 hn        1 MOL      0.297299
    126 H52        -5.5910   -1.1250   -2.3960 h1        1 MOL      0.075740
    127 H53        -6.8350    1.0640   -2.1450 hc        1 MOL      0.112296
    128 H54        -7.3650    0.6070   -0.5130 hc        1 MOL      0.112296
    129 H55        -8.6640   -1.5020   -0.2050 ha        1 MOL      0.132099
    130 H56        -7.9120    0.1880   -4.1100 ha        1 MOL      0.132099
    131 H57       -10.8470   -2.4720   -1.0920 ha        1 MOL      0.107181
    132 H58        -9.8480   -1.0360   -4.9950 ha        1 MOL      0.107181
    133 H59       -11.2880   -2.2940   -3.5500 ha        1 MOL      0.083067
    134 N12        -4.6120   -2.4890   -0.3680 n         1 MOL     -0.129641
    135 C45        -4.3920   -3.5480    0.5960 c3        1 MOL     -0.120123
    136 C46        -4.1690   -3.1570    2.0010 c         1 MOL      0.247408
    137 O20        -4.3540   -3.9380    2.9510 o         1 MOL     -0.508120
    138 C47        -3.1140   -4.2590    0.1240 c3        1 MOL     -0.039998
    139 C48        -3.2630   -4.1920   -1.3730 c3        1 MOL     -0.086137
    140 C49        -3.6480   -2.7140   -1.4540 c3        1 MOL      0.087641
    141 H60        -5.2200   -4.2530    0.5250 h1        1 MOL      0.125656
    142 H61        -2.2200   -3.7490    0.4760 hc        1 MOL      0.066479
    143 H62        -3.0320   -5.3210    0.3430 hc        1 MOL      0.066479
    144 H63        -2.4110   -4.4330   -2.0030 hc        1 MOL      0.029981
    145 H64        -4.1540   -4.7470   -1.6700 hc        1 MOL      0.029981
    146 H65        -2.8240   -2.0190   -1.2810 h1        1 MOL      0.041409
    147 H66        -4.2120   -2.4720   -2.3580 h1        1 MOL      0.041409
    148 N13        -3.8000   -1.9250    2.2630 n         1 MOL      0.076608
    149 C50        -3.7000   -1.3880    3.6170 c3        1 MOL     -0.089815
    150 C51        -5.1180   -1.1360    4.3020 c         1 MOL      0.362284
    151 O21        -5.4200   -1.5050    5.4430 o         1 MOL     -0.530755
    152 C52        -2.8270   -0.0810    3.5090 c3        1 MOL     -0.143392
    153 C53        -1.5950   -0.1840    2.6030 c3        1 MOL      0.062061
    154 C54        -1.8620   -0.1990    1.1070 c         1 MOL      0.395527
    155 O22        -1.1310   -0.9530    0.4040 o         1 MOL     -0.642852
    156 O23        -2.8380    0.4820    0.7060 o         1 MOL     -0.642852
    157 H67        -3.7970   -1.2610    1.4920 hn        1 MOL      0.170809
    158 H68        -3.1640   -2.0930    4.2680 h1        1 MOL      0.095403
    159 H69        -2.4010    0.1660    4.4800 hc        1 MOL      0.045623
    160 H70        -3.4070    0.7990    3.2350 hc        1 MOL      0.045623
    161 H71        -1.0590   -1.0760    2.9200 hc        1 MOL      0.007465
    162 H72        -0.9270    0.6530    2.8420 hc        1 MOL      0.007465
    163 N14        -6.0730   -0.7300    3.4560 n         1 MOL     -0.060409
    164 C55        -7.4880   -0.6190    3.7620 c3        1 MOL     -0.133674
    165 H73        -7.6440   -0.7970    4.8260 h1        1 MOL      0.063087
    166 H74        -7.8380    0.3810    3.5050 h1        1 MOL      0.063087
    167 H75        -8.0440   -1.3590    3.1850 h1        1 MOL      0.063087
    168 H76        -5.8040   -0.6560    2.4880 hn        1 MOL      0.150418
    169 Ca1         0.7590   -1.1800   -1.3050 Ca        1 MOL      1.754890
    170 O24         0.2940   -3.9270   -1.6510 oh        1 MOL     -0.861290
    171 H77        -0.1200   -4.2890   -2.4390 ho        1 MOL      0.419787
    172 H78         0.4730   -4.6850   -1.1030 ho        1 MOL      0.419787
    173 O25         1.3570    1.0750    0.4370 oh        1 MOL     -0.861290
    174 H79         1.7700    1.7860   -0.0570 ho        1 MOL      0.419787
    175 H80         0.6300    1.5040    0.8940 ho        1 MOL      0.419787
    176 O26         1.5850   -2.7820    0.5870 oh        1 MOL     -0.861290
    177 H81         2.4850   -2.8980    0.8920 ho        1 MOL      0.419787
    178 H82         1.0660   -3.3540    1.1550 ho        1 MOL      0.419787
@<TRIPOS>BOND
     1    1    2 1   
     2    1    4 1   
     3    1    5 1   
     4    1    6 1   
     5    2    3 2   
     6    2    7 1   
     7    7    8 1   
     8    7   15 1   
     9    8    9 1   
    10    8   11 1   
    11    8   16 1   
    12    9   10 2   
    13    9   19 1   
    14   11   12 1   
    15   11   17 1   
    16   11   18 1   
    17   12   13 1   
    18   12   14 1   
    19   19   20 1   
    20   19   24 1   
    21   20   21 1   
    22   20   23 1   
    23   20   25 1   
    24   21   22 2   
    25   21   29 1   
    26   23   26 1   
    27   23   27 1   
    28   23   28 1   
    29   29   30 1   
    30   29   37 1   
    31   30   31 1   
    32   30   33 1   
    33   30   38 1   
    34   31   32 2   
    35   31   41 1   
    36   33   34 1   
    37   33   39 1   
    38   33   40 1   
    39   34   35 1   
    40   34   36 1   
    41   41   42 1   
    42   41   45 1   
    43   42   43 1   
    44   42   46 1   
    45   42   47 1   
    46   43   44 2   
    47   43   48 1   
    48   48   49 1   
    49   48   56 1   
    50   49   50 1   
    51   49   52 1   
    52   49   57 1   
    53   50   51 2   
    54   50   62 1   
    55   52   53 1   
    56   52   58 1   
    57   52   59 1   
    58   53   54 1   
    59   53   55 2   
    60   54   60 1   
    61   54   61 1   
    62   62   63 1   
    63   62   66 1   
    64   63   64 1   
    65   63   67 1   
    66   63   68 1   
    67   64   65 2   
    68   64   69 1   
    69   69   70 1   
    70   69   76 1   
    71   70   71 1   
    72   70   73 1   
    73   70   77 1   
    74   71   72 2   
    75   71   83 1   
    76   73   74 1   
    77   73   75 1   
    78   73   78 1   
    79   74   80 1   
    80   74   81 1   
    81   74   82 1   
    82   75   79 1   
    83   83   84 1   
    84   83   91 1   
    85   84   85 1   
    86   84   87 1   
    87   84   92 1   
    88   85   86 2   
    89   85  102 1   
    90   87   88 1   
    91   87   89 1   
    92   87   93 1   
    93   88   90 1   
    94   88   94 1   
    95   88   95 1   
    96   89   96 1   
    97   89   97 1   
    98   89   98 1   
    99   90   99 1   
   100   90  100 1   
   101   90  101 1   
   102  102  103 1   
   103  102  110 1   
   104  103  104 1   
   105  103  106 1   
   106  103  111 1   
   107  104  105 2   
   108  104  114 1   
   109  106  107 1   
   110  106  112 1   
   111  106  113 1   
   112  107  108 1   
   113  107  109 1   
   114  114  115 1   
   115  114  125 1   
   116  115  116 1   
   117  115  118 1   
   118  115  126 1   
   119  116  117 2   
   120  116  134 1   
   121  118  119 1   
   122  118  127 1   
   123  118  128 1   
   124  119  120 ar  
   125  119  121 ar  
   126  120  122 ar  
   127  120  129 1   
   128  121  123 ar  
   129  121  130 1   
   130  122  124 ar  
   131  122  131 1   
   132  123  124 ar  
   133  123  132 1   
   134  124  133 1   
   135  134  135 1   
   136  134  140 1   
   137  135  136 1   
   138  135  138 1   
   139  135  141 1   
   140  136  137 2   
   141  136  148 1   
   142  138  139 1   
   143  138  142 1   
   144  138  143 1   
   145  139  140 1   
   146  139  144 1   
   147  139  145 1   
   148  140  146 1   
   149  140  147 1   
   150  148  149 1   
   151  148  157 1   
   152  149  150 1   
   153  149  152 1   
   154  149  158 1   
   155  150  151 2   
   156  150  163 1   
   157  152  153 1   
   158  152  159 1   
   159  152  160 1   
   160  153  154 1   
   161  153  161 1   
   162  153  162 1   
   163  154  155 1   
   164  154  156 1   
   165  163  164 1   
   166  163  168 1   
   167  164  165 1   
   168  164  166 1   
   169  164  167 1   
   170  170  171 1   
   171  170  172 1   
   172  173  174 1   
   173  173  175 1   
   174  176  177 1   
   175  176  178 1   
@<TRIPOS>SUBSTRUCTURE
     1 MOL         1 TEMP              0 ****  ****    0 ROOT
