@<TRIPOS>MOLECULE
MOL
  185   180     1     0     0
SMALL
resp


@<TRIPOS>ATOM
      1 C1         -5.3910    1.9270   -3.8420 c3        1 MOL     -0.415961
      2 C2         -6.2350    1.8480   -2.5340 c         1 MOL      0.473434
      3 O1         -5.8180    1.7370   -1.3760 o         1 MOL     -0.364394
      4 H1         -4.8360    2.8640   -3.8590 hc        1 MOL      0.120710
      5 H2         -4.6920    1.0920   -3.8750 hc        1 MOL      0.120710
      6 H3         -6.0540    1.8820   -4.7060 hc        1 MOL      0.120710
      7 N1         -7.5290    1.7320   -2.6560 n         1 MOL     -0.247265
      8 C3         -8.5640    1.7950   -1.6080 c3        1 MOL     -0.221746
      9 C4         -8.6330    0.6120   -0.6080 c         1 MOL      0.575293
     10 O2         -9.3280    0.6060    0.4250 o         1 MOL     -0.542766
     11 C5         -8.5280    3.0400   -0.7440 c3        1 MOL     -0.069293
     12 C6         -8.3210    4.3840   -1.4570 c         1 MOL      0.783427
     13 O3         -7.8590    5.3110   -0.8000 o         1 MOL     -0.717919
     14 O4         -8.7680    4.4970   -2.5590 o         1 MOL     -0.717919
     15 H4         -7.8560    1.5180   -3.5910 hn        1 MOL      0.230626
     16 H5         -9.5240    1.9810   -2.0980 h1        1 MOL      0.142616
     17 H6         -7.8070    2.9190    0.0660 hc        1 MOL      0.020854
     18 H7         -9.4950    3.1080   -0.2410 hc        1 MOL      0.020854
     19 N2         -7.9380   -0.4950   -0.8910 n         1 MOL     -0.493912
     20 C7         -7.8980   -1.7610   -0.0740 c3        1 MOL      0.146910
     21 C8         -6.4450   -2.3310   -0.0400 c         1 MOL      0.455935
     22 O5         -6.2460   -3.5280    0.0050 o         1 MOL     -0.567984
     23 C9         -8.9650   -2.7040   -0.7010 c3        1 MOL     -0.143502
     24 C10        -9.5720   -3.8920    0.0710 c3        1 MOL     -0.014892
     25 C11       -10.8090   -3.3410    0.9250 c3        1 MOL     -0.012465
     26 C12       -11.3870   -4.4130    1.8360 c3        1 MOL     -0.068217
     27 N3        -10.2920   -5.1130    2.5580 n4        1 MOL     -0.359956
     28 H8         -7.3680   -0.4650   -1.7230 hn        1 MOL      0.219984
     29 H9         -8.2070   -1.6080    0.9640 h1        1 MOL      0.057300
     30 H10        -8.7030   -3.1290   -1.6800 hc        1 MOL      0.072938
     31 H11        -9.8260   -2.0920   -0.9540 hc        1 MOL      0.072938
     32 H12        -8.8550   -4.4760    0.6490 hc        1 MOL      0.026795
     33 H13        -9.9830   -4.4970   -0.7330 hc        1 MOL      0.026795
     34 H14       -11.5870   -3.0010    0.2420 hc        1 MOL      0.064691
     35 H15       -10.5660   -2.4760    1.5340 hc        1 MOL      0.064691
     36 H16       -12.0320   -5.0710    1.2550 hx        1 MOL      0.105635
     37 H17       -12.0490   -4.0090    2.5990 hx        1 MOL      0.105635
     38 H18        -9.7020   -4.3840    2.9320 hn        1 MOL      0.333814
     39 H19       -10.7030   -5.5920    3.3480 hn        1 MOL      0.333814
     40 H20        -9.7550   -5.8480    2.1260 hn        1 MOL      0.333814
     41 N4         -5.5000   -1.4860   -0.2420 n         1 MOL     -0.181314
     42 C13        -4.1000   -1.7920   -0.3610 c3        1 MOL     -0.262268
     43 C14        -3.5720   -2.5470    0.9000 c         1 MOL      0.647763
     44 O6         -3.8270   -2.2060    2.0210 o         1 MOL     -0.513922
     45 C15        -3.2480   -0.5540   -0.6350 c3        1 MOL     -0.077481
     46 C16        -1.7650   -0.9810   -0.7850 c         1 MOL      0.426677
     47 O7         -1.0420   -0.8530    0.1350 o         1 MOL     -0.661178
     48 O8         -1.3270   -1.3890   -1.9240 o         1 MOL     -0.661178
     49 H21        -5.7610   -0.5120   -0.3620 hn        1 MOL      0.172008
     50 H22        -4.0030   -2.4910   -1.2030 h1        1 MOL      0.126819
     51 H23        -3.3100    0.1640    0.1860 hc        1 MOL      0.114513
     52 H24        -3.5710   -0.0990   -1.5630 hc        1 MOL      0.114513
     53 N5         -2.8330   -3.6450    0.5980 n         1 MOL     -0.368872
     54 C17        -2.3470   -4.6270    1.5670 c3        1 MOL     -0.128741
     55 C18        -1.4510   -4.0560    2.6510 c         1 MOL      0.598829
     56 O9         -1.5420   -4.6560    3.6950 o         1 MOL     -0.584525
     57 H25        -2.5710   -3.9030   -0.3480 hn        1 MOL      0.274281
     58 H26        -1.6920   -5.3650    1.1030 h1        1 MOL      0.086913
     59 H27        -3.1730   -5.1210    2.0860 h1        1 MOL      0.086913
     60 N6         -0.7500   -2.9520    2.5110 n         1 MOL     -0.367431
     61 C19        -0.1070   -2.1620    3.5780 c3        1 MOL     -0.012467
     62 C20        -0.5820   -0.6850    3.7260 c         1 MOL      0.429517
     63 O10        -0.1300   -0.0350    4.7000 o         1 MOL     -0.536351
     64 C21         1.4350   -2.2940    3.5020 c3        1 MOL     -0.279684
     65 C22         2.0250   -1.4300    2.4180 c         1 MOL      0.884058
     66 N7          2.6540   -0.3520    2.8250 n         1 MOL     -0.916298
     67 O11         1.9810   -1.7610    1.2420 o         1 MOL     -0.851699
     68 H28        -0.6980   -2.6130    1.5580 hn        1 MOL      0.409888
     69 H29        -0.4190   -2.7180    4.4670 h1        1 MOL      0.136467
     70 H30         1.5930   -3.3390    3.2180 hc        1 MOL      0.098246
     71 H31         1.9680   -2.2380    4.4470 hc        1 MOL      0.098246
     72 H32         2.6390   -0.0050    3.7710 hn        1 MOL      0.419845
     73 H33         3.0940    0.1580    2.0740 hn        1 MOL      0.419845
     74 N8         -1.5010   -0.2310    2.8150 n         1 MOL     -0.005190
     75 C23        -2.2970    0.9690    3.0490 c3        1 MOL     -0.528515
     76 C24        -1.4940    2.1730    2.5340 c         1 MOL      0.681288
     77 O12        -1.5010    3.2850    3.0420 o         1 MOL     -0.558725
     78 H34        -1.5860   -0.7860    1.9810 hn        1 MOL     -0.006501
     79 H35        -2.4690    1.0480    4.1140 h1        1 MOL      0.229505
     80 H36        -3.1750    1.0700    2.4070 h1        1 MOL      0.229505
     81 N9         -0.8650    1.8980    1.3790 n         1 MOL     -0.409168
     82 C25        -0.1030    2.7820    0.4690 c3        1 MOL      0.292245
     83 C26         1.2370    2.1550    0.1230 c         1 MOL     -0.002050
     84 O13         1.4210    0.9570    0.0650 o         1 MOL     -0.165662
     85 C27        -0.9490    2.9090   -0.8610 c3        1 MOL     -0.070518
     86 C28        -2.1260    3.8230   -0.7320 ca        1 MOL     -0.059665
     87 C29        -2.0200    5.1420   -1.2110 ca        1 MOL     -0.147988
     88 C30        -3.4610    3.3930   -0.3530 ca        1 MOL     -0.147988
     89 C31        -3.0940    6.0740   -1.1870 ca        1 MOL     -0.217813
     90 C32        -4.5530    4.3410   -0.2490 ca        1 MOL     -0.217813
     91 C33        -4.3370    5.6540   -0.6570 ca        1 MOL      0.411136
     92 O14        -5.3080    6.5980   -0.5480 oh        1 MOL     -0.575082
     93 H37        -1.0150    0.9740    1.0150 hn        1 MOL      0.114746
     94 H38         0.0720    3.7400    0.9660 h1        1 MOL      0.036950
     95 H39        -1.4270    1.9480   -1.0370 hc        1 MOL      0.045839
     96 H40        -0.4280    3.1610   -1.7750 hc        1 MOL      0.045839
     97 H41        -1.1010    5.2630   -1.7600 ha        1 MOL      0.069106
     98 H42        -3.6100    2.3580   -0.0870 ha        1 MOL      0.069106
     99 H43        -2.7770    7.0680   -1.4580 ha        1 MOL      0.127625
    100 H44        -5.5370    4.0060    0.0590 ha        1 MOL      0.127625
    101 H45        -6.2200    6.3450   -0.3870 ho        1 MOL      0.420163
    102 N10         2.2210    3.0330   -0.2130 n         1 MOL     -0.247256
    103 C34         3.6330    2.6530   -0.5660 c3        1 MOL      0.367094
    104 C35         4.3780    2.1040    0.6840 c         1 MOL      0.226380
    105 O15         4.8140    0.9820    0.6350 o         1 MOL     -0.403861
    106 C36         4.2970    3.7510   -1.4440 c3        1 MOL      0.091136
    107 C37         3.5880    3.9620   -2.8480 c3        1 MOL     -0.001437
    108 C38         5.8090    3.5370   -1.5650 c3        1 MOL     -0.466082
    109 C39         3.7650    2.8750   -3.8750 c3        1 MOL     -0.246841
    110 H46         1.9290    3.9910   -0.0810 hn        1 MOL      0.198749
    111 H47         3.5880    1.7960   -1.2300 h1        1 MOL     -0.048073
    112 H48         4.1090    4.6850   -0.9050 hc        1 MOL     -0.056478
    113 H49         3.9660    4.8750   -3.3170 hc        1 MOL      0.022300
    114 H50         2.5190    4.0210   -2.6080 hc        1 MOL      0.022300
    115 H51         6.1690    3.5060   -0.5420 hc        1 MOL      0.142670
    116 H52         6.0580    2.5550   -1.9670 hc        1 MOL      0.142670
    117 H53         6.1840    4.3940   -2.1260 hc        1 MOL      0.142670
    118 H54         4.8170    2.5740   -3.9100 hc        1 MOL      0.078408
    119 H55         2.9760    2.1350   -3.7780 hc        1 MOL      0.078408
    120 H56         3.5950    3.3040   -4.8600 hc        1 MOL      0.078408
    121 N11         4.4100    2.9110    1.7770 n         1 MOL     -0.264534
    122 C40         5.0400    2.5250    3.0190 c3        1 MOL     -0.161310
    123 C41         6.5090    2.0990    2.8970 c         1 MOL      0.707166
    124 O16         6.8610    1.1990    3.6410 o         1 MOL     -0.523382
    125 C42         4.8090    3.5950    4.0580 c3        1 MOL      0.319025
    126 O17         5.4720    4.8200    3.6870 oh        1 MOL     -0.634035
    127 H57         4.1140    3.8730    1.6580 hn        1 MOL      0.214457
    128 H58         4.4940    1.6950    3.4580 h1        1 MOL      0.043016
    129 H59         5.1130    3.2770    5.0470 h1        1 MOL      0.029701
    130 H60         3.7510    3.8520    4.0980 h1        1 MOL      0.029701
    131 H61         4.8900    5.3040    3.0900 ho        1 MOL      0.397683
    132 N12         7.2370    2.6370    1.9440 n         1 MOL     -0.521311
    133 C43         8.4940    2.0950    1.5110 c3        1 MOL      0.392256
    134 C44         8.5310    0.5430    1.4520 c         1 MOL      0.300554
    135 O18         9.4200   -0.1140    1.9920 o         1 MOL     -0.505807
    136 C45         9.5980    2.8030    2.3270 c3        1 MOL     -0.429329
    137 H62         6.7840    3.3150    1.3540 hn        1 MOL      0.226437
    138 H63         8.6640    2.3830    0.4750 h1        1 MOL     -0.000533
    139 H64        10.6170    2.5210    2.0540 hc        1 MOL      0.119752
    140 H65         9.6040    3.8720    2.1250 hc        1 MOL      0.119752
    141 H66         9.3830    2.6100    3.3830 hc        1 MOL      0.119752
    142 N13         7.5130   -0.0880    0.8760 n         1 MOL     -0.313271
    143 C46         7.3040   -1.5020    0.7290 c3        1 MOL      0.523483
    144 C47         7.0600   -1.8470   -0.7170 c         1 MOL      0.236653
    145 O19         6.4610   -1.0420   -1.4400 o         1 MOL     -0.508197
    146 C48         6.1180   -1.8550    1.5990 c3        1 MOL     -0.156760
    147 H67         6.6870    0.4440    0.6500 hn        1 MOL      0.126304
    148 H68         8.1760   -2.0590    1.0790 h1        1 MOL     -0.045118
    149 H69         6.0240   -1.2750    2.5210 hc        1 MOL      0.042065
    150 H70         5.2190   -1.8160    0.9840 hc        1 MOL      0.042065
    151 H71         6.2770   -2.8930    1.9030 hc        1 MOL      0.042065
    152 N14         7.5370   -3.0320   -1.2300 n         1 MOL     -0.606527
    153 C49         7.1320   -3.5610   -2.5530 c3        1 MOL     -0.030321
    154 C50         7.7430   -2.8500   -3.7490 c         1 MOL      0.383450
    155 O20         7.6740   -3.3420   -4.8870 o         1 MOL     -0.517598
    156 C51         5.5360   -3.6650   -2.7430 c3        1 MOL      0.100444
    157 C52         4.9160   -4.4950   -1.6400 c3        1 MOL      0.014878
    158 C53         3.4200   -4.6330   -1.8340 c         1 MOL      0.520395
    159 O21         3.0290   -5.4040   -2.7080 o         1 MOL     -0.656039
    160 O22         2.6150   -3.8150   -1.2830 o         1 MOL     -0.656039
    161 H72         7.9090   -3.6720   -0.5400 hn        1 MOL      0.371793
    162 H73         7.5170   -4.5650   -2.7210 h1        1 MOL      0.135276
    163 H74         5.3560   -4.1080   -3.7220 hc        1 MOL      0.030376
    164 H75         5.0820   -2.6740   -2.7500 hc        1 MOL      0.030376
    165 H76         5.0860   -4.1240   -0.6330 hc        1 MOL     -0.024825
    166 H77         5.4500   -5.4470   -1.6720 hc        1 MOL     -0.024825
    167 N15         8.4650   -1.7470   -3.4730 n         1 MOL     -0.172945
    168 C54         9.1570   -0.8660   -4.4230 c3        1 MOL     -0.182447
    169 H78         9.0600   -1.2710   -5.4300 h1        1 MOL      0.092748
    170 H79         8.7120    0.1280   -4.3870 h1        1 MOL      0.092748
    171 H80        10.2120   -0.8020   -4.1580 h1        1 MOL      0.092748
    172 H81         8.5650   -1.5860   -2.4800 hn        1 MOL      0.249915
    173 Ca1         1.1290   -1.6420   -1.3220 Ca        1 MOL      1.795573
    174 O23         3.6880   -0.9150   -1.4960 oh        1 MOL     -0.910413
    175 H82         4.4770   -1.4410   -1.6350 ho        1 MOL      0.438796
    176 H83         3.9100   -0.3450   -0.7490 ho        1 MOL      0.438796
    177 O24         0.1270   -4.0330   -0.2980 oh        1 MOL     -0.910413
    178 H84         0.6690   -4.6350    0.2000 ho        1 MOL      0.438796
    179 H85         0.1400   -4.3740   -1.1950 ho        1 MOL      0.438796
    180 O25         0.5930    0.4820   -2.8100 oh        1 MOL     -0.910413
    181 H86        -0.3620    0.4590   -2.8920 ho        1 MOL      0.438796
    182 H87         0.8840    1.1130   -3.4700 ho        1 MOL      0.438796
    183 O26         0.7280   -2.4250   -3.7920 oh        1 MOL     -0.910413
    184 H88         0.1150   -2.0840   -4.4430 ho        1 MOL      0.438796
    185 H89         1.3250   -2.9800   -4.2850 ho        1 MOL      0.438796
@<TRIPOS>BOND
     1    1    2 1   
     2    1    4 1   
     3    1    5 1   
     4    1    6 1   
     5    2    3 2   
     6    2    7 1   
     7    7    8 1   
     8    7   15 1   
     9    8    9 1   
    10    8   11 1   
    11    8   16 1   
    12    9   10 2   
    13    9   19 1   
    14   11   12 1   
    15   11   17 1   
    16   11   18 1   
    17   12   13 1   
    18   12   14 1   
    19   19   20 1   
    20   19   28 1   
    21   20   21 1   
    22   20   23 1   
    23   20   29 1   
    24   21   22 2   
    25   21   41 1   
    26   23   24 1   
    27   23   30 1   
    28   23   31 1   
    29   24   25 1   
    30   24   32 1   
    31   24   33 1   
    32   25   26 1   
    33   25   34 1   
    34   25   35 1   
    35   26   27 1   
    36   26   36 1   
    37   26   37 1   
    38   27   38 1   
    39   27   39 1   
    40   27   40 1   
    41   41   42 1   
    42   41   49 1   
    43   42   43 1   
    44   42   45 1   
    45   42   50 1   
    46   43   44 2   
    47   43   53 1   
    48   45   46 1   
    49   45   51 1   
    50   45   52 1   
    51   46   47 1   
    52   46   48 1   
    53   53   54 1   
    54   53   57 1   
    55   54   55 1   
    56   54   58 1   
    57   54   59 1   
    58   55   56 2   
    59   55   60 1   
    60   60   61 1   
    61   60   68 1   
    62   61   62 1   
    63   61   64 1   
    64   61   69 1   
    65   62   63 2   
    66   62   74 1   
    67   64   65 1   
    68   64   70 1   
    69   64   71 1   
    70   65   66 1   
    71   65   67 2   
    72   66   72 1   
    73   66   73 1   
    74   74   75 1   
    75   74   78 1   
    76   75   76 1   
    77   75   79 1   
    78   75   80 1   
    79   76   77 2   
    80   76   81 1   
    81   81   82 1   
    82   81   93 1   
    83   82   83 1   
    84   82   85 1   
    85   82   94 1   
    86   83   84 2   
    87   83  102 1   
    88   85   86 1   
    89   85   95 1   
    90   85   96 1   
    91   86   87 ar  
    92   86   88 ar  
    93   87   89 ar  
    94   87   97 1   
    95   88   90 ar  
    96   88   98 1   
    97   89   91 ar  
    98   89   99 1   
    99   90   91 ar  
   100   90  100 1   
   101   91   92 1   
   102   92  101 1   
   103  102  103 1   
   104  102  110 1   
   105  103  104 1   
   106  103  106 1   
   107  103  111 1   
   108  104  105 2   
   109  104  121 1   
   110  106  107 1   
   111  106  108 1   
   112  106  112 1   
   113  107  109 1   
   114  107  113 1   
   115  107  114 1   
   116  108  115 1   
   117  108  116 1   
   118  108  117 1   
   119  109  118 1   
   120  109  119 1   
   121  109  120 1   
   122  121  122 1   
   123  121  127 1   
   124  122  123 1   
   125  122  125 1   
   126  122  128 1   
   127  123  124 2   
   128  123  132 1   
   129  125  126 1   
   130  125  129 1   
   131  125  130 1   
   132  126  131 1   
   133  132  133 1   
   134  132  137 1   
   135  133  134 1   
   136  133  136 1   
   137  133  138 1   
   138  134  135 2   
   139  134  142 1   
   140  136  139 1   
   141  136  140 1   
   142  136  141 1   
   143  142  143 1   
   144  142  147 1   
   145  143  144 1   
   146  143  146 1   
   147  143  148 1   
   148  144  145 2   
   149  144  152 1   
   150  146  149 1   
   151  146  150 1   
   152  146  151 1   
   153  152  153 1   
   154  152  161 1   
   155  153  154 1   
   156  153  156 1   
   157  153  162 1   
   158  154  155 2   
   159  154  167 1   
   160  156  157 1   
   161  156  163 1   
   162  156  164 1   
   163  157  158 1   
   164  157  165 1   
   165  157  166 1   
   166  158  159 1   
   167  158  160 1   
   168  167  168 1   
   169  167  172 1   
   170  168  169 1   
   171  168  170 1   
   172  168  171 1   
   173  174  175 1   
   174  174  176 1   
   175  177  178 1   
   176  177  179 1   
   177  180  181 1   
   178  180  182 1   
   179  183  184 1   
   180  183  185 1   
@<TRIPOS>SUBSTRUCTURE
     1 MOL         1 TEMP              0 ****  ****    0 ROOT
