@<TRIPOS>MOLECULE
MOL
  181   177     1     0     0
SMALL
resp


@<TRIPOS>ATOM
      1 C1          1.5480    6.5480   -2.8470 c3        1 MOL     -0.422848
      2 C2          2.8490    6.1570   -2.2460 c         1 MOL      0.781384
      3 O1          3.2720    6.7610   -1.2510 o         1 MOL     -0.624237
      4 H1          0.7470    6.3640   -2.1300 hc        1 MOL      0.103941
      5 H2          1.5690    7.6080   -3.1030 hc        1 MOL      0.103941
      6 H3          1.3720    5.9600   -3.7480 hc        1 MOL      0.103941
      7 N1          3.5790    5.1910   -2.8030 n         1 MOL     -0.697391
      8 C3          4.8000    4.6940   -2.0950 c3        1 MOL      0.381596
      9 C4          4.4130    4.0050   -0.7570 c         1 MOL      0.503934
     10 O2          3.5960    3.1160   -0.7250 o         1 MOL     -0.569667
     11 C5          5.6360    3.6730   -2.8960 c3        1 MOL     -0.371368
     12 C6          6.9150    3.2970   -2.2010 c         1 MOL      0.827833
     13 O3          7.7150    4.1540   -1.7750 o         1 MOL     -0.754443
     14 O4          7.1450    2.0730   -2.1030 o         1 MOL     -0.754443
     15 H4          3.1520    4.6310   -3.5260 hn        1 MOL      0.324960
     16 H5          5.4720    5.5420   -1.9130 h1        1 MOL     -0.008373
     17 H6          5.9190    4.0310   -3.8910 hc        1 MOL      0.048750
     18 H7          5.0580    2.7500   -2.9550 hc        1 MOL      0.048750
     19 N2          5.1190    4.3700    0.3220 n         1 MOL     -0.586273
     20 C7          4.9850    3.7150    1.6550 c3        1 MOL      0.499927
     21 C8          3.4830    3.6060    2.1050 c         1 MOL      0.568582
     22 O5          2.6820    4.4940    1.9580 o         1 MOL     -0.572622
     23 C9          5.7310    4.5920    2.7450 c3        1 MOL     -0.375895
     24 H8          5.7220    5.1530    0.1230 hn        1 MOL      0.317044
     25 H9          5.4390    2.7230    1.6720 h1        1 MOL      0.028612
     26 H10         5.2050    4.5690    3.6950 hc        1 MOL      0.089272
     27 H11         6.7630    4.2420    2.8250 hc        1 MOL      0.089272
     28 H12         5.7970    5.6210    2.4030 hc        1 MOL      0.089272
     29 N3          3.1030    2.5710    2.8730 n         1 MOL     -0.650459
     30 C10         3.9640    1.5700    3.5520 c3        1 MOL      0.362854
     31 C11         4.4030    0.4300    2.6090 c         1 MOL      0.106382
     32 O6          3.7950    0.2410    1.5480 o         1 MOL     -0.396346
     33 C12         3.2170    1.0870    4.8580 c3        1 MOL     -0.243388
     34 C13         1.8860    0.3250    4.6700 c         1 MOL      0.733276
     35 O7          1.5150   -0.1280    3.5400 o         1 MOL     -0.678412
     36 O8          1.1730    0.0900    5.7070 o         1 MOL     -0.678412
     37 H13         2.1460    2.6850    3.1780 hn        1 MOL      0.316883
     38 H14         4.9300    1.9740    3.8370 h1        1 MOL     -0.064931
     39 H15         3.0040    1.9260    5.5230 hc        1 MOL      0.040777
     40 H16         3.9300    0.4050    5.3200 hc        1 MOL      0.040777
     41 N4          5.5010   -0.2010    2.9250 n         1 MOL     -0.202817
     42 C14         6.1900   -1.1200    1.9780 c3        1 MOL     -0.351451
     43 C15         6.8230   -0.3880    0.8170 c         1 MOL      0.745738
     44 O9          6.9420    0.8580    0.8420 o         1 MOL     -0.532422
     45 H17         5.9700    0.0390    3.7900 hn        1 MOL      0.277878
     46 H18         5.4560   -1.8620    1.6580 h1        1 MOL      0.130705
     47 H19         7.0510   -1.5900    2.4400 h1        1 MOL      0.130705
     48 N5          7.3000   -1.0370   -0.2370 n         1 MOL     -0.616250
     49 C16         7.2630   -2.4480   -0.4570 c3        1 MOL      0.180438
     50 C17         6.2830   -2.9160   -1.6050 c         1 MOL      0.636671
     51 O10         6.3100   -4.1410   -1.8730 o         1 MOL     -0.573035
     52 C18         8.7300   -2.9210   -0.6010 c3        1 MOL     -0.439487
     53 C19         9.6410   -2.4950    0.5590 c         1 MOL      0.781003
     54 N6          9.4320   -3.0170    1.7230 n         1 MOL     -0.832397
     55 O11        10.4730   -1.6640    0.4370 o         1 MOL     -0.547236
     56 H20         7.8080   -0.5060   -0.9370 hn        1 MOL      0.365761
     57 H21         6.8240   -2.8950    0.4420 h1        1 MOL     -0.006361
     58 H22         9.1160   -2.4800   -1.5230 hc        1 MOL      0.122183
     59 H23         8.7460   -3.9920   -0.7840 hc        1 MOL      0.122183
     60 H24         8.7030   -3.7130    1.8140 hn        1 MOL      0.369292
     61 H25         9.8010   -2.5980    2.5620 hn        1 MOL      0.369292
     62 N7          5.4140   -2.1040   -2.2140 n         1 MOL     -0.433124
     63 C20         4.7260   -2.4540   -3.4280 c3        1 MOL     -0.047134
     64 C21         3.3680   -3.1900   -3.1890 c         1 MOL      0.392512
     65 O12         2.9820   -3.7720   -4.2510 o         1 MOL     -0.540315
     66 H26         5.2180   -1.1690   -1.8890 hn        1 MOL      0.289451
     67 H27         5.2760   -2.9650   -4.2150 h1        1 MOL      0.104122
     68 H28         4.4610   -1.4930   -3.8630 h1        1 MOL      0.104122
     69 N8          2.8320   -3.4020   -1.9750 n         1 MOL     -0.127216
     70 C22         1.5790   -4.2000   -1.7880 c3        1 MOL     -0.054625
     71 C23         0.3510   -3.2900   -1.5050 c         1 MOL      0.418881
     72 O13         0.4330   -2.3410   -0.7640 o         1 MOL     -0.470639
     73 C24         1.6740   -5.4690   -0.9120 c3        1 MOL      0.541243
     74 C25         2.6010   -6.5030   -1.6230 c3        1 MOL     -0.472481
     75 O14         2.2340   -5.0740    0.3070 oh        1 MOL     -0.665816
     76 H29         3.4260   -3.1040   -1.2110 hn        1 MOL      0.161614
     77 H30         1.3890   -4.5050   -2.8190 h1        1 MOL      0.027206
     78 H31         0.7210   -5.9910   -0.8490 h1        1 MOL     -0.027793
     79 H32         1.5610   -4.9550    0.9780 ho        1 MOL      0.411983
     80 H33         2.1850   -6.8220   -2.5720 hc        1 MOL      0.120522
     81 H34         3.5610   -6.0310   -1.8060 hc        1 MOL      0.120522
     82 H35         2.8300   -7.3270   -0.9480 hc        1 MOL      0.120522
     83 N9         -0.8230   -3.7570   -1.9000 n         1 MOL     -0.306697
     84 C26        -2.1530   -3.2630   -1.5730 c3        1 MOL     -0.384366
     85 C27        -2.5520   -3.7040   -0.1750 c         1 MOL      0.501518
     86 O15        -2.5320   -4.9370    0.1240 o         1 MOL     -0.541496
     87 C28        -3.2670   -3.5710   -2.5900 c3        1 MOL      0.385345
     88 C29        -4.5970   -2.7750   -2.3690 c3        1 MOL     -0.191369
     89 C30        -2.8180   -3.3450   -4.0760 c3        1 MOL     -0.352192
     90 C31        -5.7180   -3.1360   -3.3310 c3        1 MOL     -0.176860
     91 H36        -0.8440   -4.5400   -2.5370 hn        1 MOL      0.267268
     92 H37        -2.0070   -2.1860   -1.5640 h1        1 MOL      0.283626
     93 H38        -3.4750   -4.6440   -2.5810 hc        1 MOL     -0.020826
     94 H39        -4.3260   -1.7240   -2.4250 hc        1 MOL      0.096505
     95 H40        -5.0680   -3.0950   -1.4310 hc        1 MOL      0.096505
     96 H41        -1.9450   -3.9740   -4.2740 hc        1 MOL      0.074753
     97 H42        -3.6120   -3.5870   -4.7960 hc        1 MOL      0.074753
     98 H43        -2.5790   -2.2830   -4.1090 hc        1 MOL      0.074753
     99 H44        -5.8710   -4.2150   -3.3900 hc        1 MOL      0.041959
    100 H45        -6.7050   -2.8010   -2.9920 hc        1 MOL      0.041959
    101 H46        -5.6230   -2.7620   -4.3520 hc        1 MOL      0.041959
    102 N10        -3.0790   -2.6860    0.5740 n         1 MOL     -0.021253
    103 C32        -3.8240   -2.8450    1.8340 c3        1 MOL     -0.018012
    104 C33        -5.2430   -2.2550    1.8250 c         1 MOL      0.459819
    105 O16        -6.1670   -2.7530    2.4790 o         1 MOL     -0.530892
    106 C34        -3.0380   -2.1330    2.9360 c3        1 MOL      0.004119
    107 C35        -1.6520   -2.7010    3.0500 c         1 MOL      0.654888
    108 O17        -1.5000   -3.7980    3.6580 o         1 MOL     -0.695291
    109 O18        -0.6400   -2.1540    2.5130 o         1 MOL     -0.695291
    110 H47        -2.9760   -1.7400    0.2420 hn        1 MOL     -0.240979
    111 H48        -3.8710   -3.8890    2.1330 h1        1 MOL      0.076977
    112 H49        -3.6650   -2.2390    3.8240 hc        1 MOL      0.011923
    113 H50        -3.0230   -1.0870    2.6420 hc        1 MOL      0.011923
    114 N11        -5.4960   -1.1990    1.0200 n         1 MOL     -0.419634
    115 C36        -6.7020   -0.4190    1.1960 c3        1 MOL      0.177255
    116 C37        -6.4180    0.9860    0.6560 c         1 MOL      0.208996
    117 O19        -6.9490    1.2790   -0.4180 o         1 MOL     -0.422953
    118 C38        -7.9710   -1.0310    0.5070 c3        1 MOL     -0.191944
    119 C39        -9.3940   -0.6060    0.8500 ca        1 MOL      0.104508
    120 C40        -9.6940   -0.3090    2.1900 ca        1 MOL     -0.165197
    121 C41       -10.3860   -0.4920   -0.1330 ca        1 MOL     -0.165197
    122 C42       -10.9880    0.2690    2.4980 ca        1 MOL     -0.081781
    123 C43       -11.6440   -0.0910    0.2090 ca        1 MOL     -0.081781
    124 C44       -12.0090    0.2600    1.4940 ca        1 MOL     -0.181572
    125 H51        -4.7680   -0.7050    0.5250 hn        1 MOL      0.257019
    126 H52        -6.9030   -0.2720    2.2560 h1        1 MOL      0.055101
    127 H53        -7.9670   -2.1140    0.6500 hc        1 MOL      0.098876
    128 H54        -7.8900   -1.0370   -0.5840 hc        1 MOL      0.098876
    129 H55        -8.8820   -0.2390    2.8950 ha        1 MOL      0.109596
    130 H56       -10.2160   -0.9190   -1.1150 ha        1 MOL      0.109596
    131 H57       -11.1430    0.7420    3.4560 ha        1 MOL      0.094331
    132 H58       -12.3420    0.0400   -0.6120 ha        1 MOL      0.094331
    133 H59       -13.0220    0.6380    1.6030 ha        1 MOL      0.108292
    134 N12        -5.5640    1.8290    1.2780 n         1 MOL      0.122928
    135 C45        -5.4310    3.2530    0.8980 c3        1 MOL     -0.119320
    136 C46        -5.0250    3.4770   -0.5310 c         1 MOL      0.299481
    137 O20        -5.2120    4.5640   -1.1130 o         1 MOL     -0.492946
    138 C47        -4.3780    3.7830    1.9430 c3        1 MOL     -0.001214
    139 C48        -4.6670    2.8830    3.1670 c3        1 MOL     -0.199235
    140 C49        -4.9870    1.5210    2.5590 c3        1 MOL     -0.137618
    141 H60        -6.4200    3.7010    1.0200 h1        1 MOL      0.103502
    142 H61        -3.3370    3.7240    1.6040 hc        1 MOL      0.049458
    143 H62        -4.6210    4.7980    2.2610 hc        1 MOL      0.049458
    144 H63        -3.7590    2.9280    3.7700 hc        1 MOL      0.084846
    145 H64        -5.5620    3.1640    3.7290 hc        1 MOL      0.084846
    146 H65        -4.0480    0.9650    2.5190 h1        1 MOL      0.094705
    147 H66        -5.7430    1.1030    3.2260 h1        1 MOL      0.094705
    148 N13        -4.4040    2.4980   -1.2040 n         1 MOL      0.017207
    149 C50        -4.1400    2.6490   -2.6000 c3        1 MOL     -0.427216
    150 C51        -5.3910    2.7910   -3.4990 c         1 MOL      0.605000
    151 O21        -5.5870    3.6020   -4.4110 o         1 MOL     -0.573800
    152 C52        -3.3300    1.3930   -3.1240 c3        1 MOL      0.120347
    153 C53        -2.0620    1.0680   -2.2590 c3        1 MOL      0.005920
    154 C54        -2.2970    0.3520   -0.8690 c         1 MOL      0.304417
    155 O22        -1.2990    0.0070   -0.1590 o         1 MOL     -0.494925
    156 O23        -3.4320    0.0380   -0.4890 o         1 MOL     -0.494925
    157 H67        -4.3220    1.6190   -0.7080 hn        1 MOL      0.192199
    158 H68        -3.4690    3.4930   -2.7820 h1        1 MOL      0.162300
    159 H69        -3.0210    1.4980   -4.1600 hc        1 MOL     -0.012431
    160 H70        -3.9560    0.5080   -3.1380 hc        1 MOL     -0.012431
    161 H71        -1.5480    2.0040   -2.0390 hc        1 MOL      0.018541
    162 H72        -1.3480    0.5450   -2.8850 hc        1 MOL      0.018541
    163 N14        -6.4080    1.9700   -3.1910 n         1 MOL     -0.236028
    164 C55        -7.7560    2.0550   -3.7210 c3        1 MOL     -0.182314
    165 H73        -8.4730    1.9100   -2.9130 h1        1 MOL      0.081819
    166 H74        -7.9090    3.0370   -4.1700 h1        1 MOL      0.081819
    167 H75        -7.8990    1.2840   -4.4770 h1        1 MOL      0.081819
    168 H76        -6.2400    1.4840   -2.3220 hn        1 MOL      0.184762
    169 Ca1         0.8280   -0.5970    1.1800 Ca        1 MOL      1.616231
    170 O24         2.0260   -0.0210   -1.1610 oh        1 MOL     -0.834076
    171 O25         0.8940    2.0850    0.2340 oh        1 MOL     -0.834076
    172 H77         1.6510    0.7620   -1.5620 ho        1 MOL      0.405963
    173 H78         1.7970    2.3940    0.1180 ho        1 MOL      0.405963
    174 H79         2.9610    0.0150   -1.3900 ho        1 MOL      0.405963
    175 H80         0.4220    2.8350    0.6050 ho        1 MOL      0.405963
    176 O26         2.7650   -2.4380    1.6840 oh        1 MOL     -0.834076
    177 H81         2.9270   -3.3210    1.3720 ho        1 MOL      0.405963
    178 H82         3.2740   -2.3640    2.4910 ho        1 MOL      0.405963
    179 O27        -1.3130    0.9250    2.3450 oh        1 MOL     -0.834076
    180 H83        -1.6300    0.4900    1.5500 ho        1 MOL      0.405963
    181 H84        -1.1380    1.8300    2.0660 ho        1 MOL      0.405963
@<TRIPOS>BOND
     1    1    2 1   
     2    1    4 1   
     3    1    5 1   
     4    1    6 1   
     5    2    3 2   
     6    2    7 1   
     7    7    8 1   
     8    7   15 1   
     9    8    9 1   
    10    8   11 1   
    11    8   16 1   
    12    9   10 2   
    13    9   19 1   
    14   11   12 1   
    15   11   17 1   
    16   11   18 1   
    17   12   13 1   
    18   12   14 1   
    19   19   20 1   
    20   19   24 1   
    21   20   21 1   
    22   20   23 1   
    23   20   25 1   
    24   21   22 2   
    25   21   29 1   
    26   23   26 1   
    27   23   27 1   
    28   23   28 1   
    29   29   30 1   
    30   29   37 1   
    31   30   31 1   
    32   30   33 1   
    33   30   38 1   
    34   31   32 2   
    35   31   41 1   
    36   33   34 1   
    37   33   39 1   
    38   33   40 1   
    39   34   35 1   
    40   34   36 1   
    41   41   42 1   
    42   41   45 1   
    43   42   43 1   
    44   42   46 1   
    45   42   47 1   
    46   43   44 2   
    47   43   48 1   
    48   48   49 1   
    49   48   56 1   
    50   49   50 1   
    51   49   52 1   
    52   49   57 1   
    53   50   51 2   
    54   50   62 1   
    55   52   53 1   
    56   52   58 1   
    57   52   59 1   
    58   53   54 1   
    59   53   55 2   
    60   54   60 1   
    61   54   61 1   
    62   62   63 1   
    63   62   66 1   
    64   63   64 1   
    65   63   67 1   
    66   63   68 1   
    67   64   65 2   
    68   64   69 1   
    69   69   70 1   
    70   69   76 1   
    71   70   71 1   
    72   70   73 1   
    73   70   77 1   
    74   71   72 2   
    75   71   83 1   
    76   73   74 1   
    77   73   75 1   
    78   73   78 1   
    79   74   80 1   
    80   74   81 1   
    81   74   82 1   
    82   75   79 1   
    83   83   84 1   
    84   83   91 1   
    85   84   85 1   
    86   84   87 1   
    87   84   92 1   
    88   85   86 2   
    89   85  102 1   
    90   87   88 1   
    91   87   89 1   
    92   87   93 1   
    93   88   90 1   
    94   88   94 1   
    95   88   95 1   
    96   89   96 1   
    97   89   97 1   
    98   89   98 1   
    99   90   99 1   
   100   90  100 1   
   101   90  101 1   
   102  102  103 1   
   103  102  110 1   
   104  103  104 1   
   105  103  106 1   
   106  103  111 1   
   107  104  105 2   
   108  104  114 1   
   109  106  107 1   
   110  106  112 1   
   111  106  113 1   
   112  107  108 1   
   113  107  109 1   
   114  114  115 1   
   115  114  125 1   
   116  115  116 1   
   117  115  118 1   
   118  115  126 1   
   119  116  117 2   
   120  116  134 1   
   121  118  119 1   
   122  118  127 1   
   123  118  128 1   
   124  119  120 ar  
   125  119  121 ar  
   126  120  122 ar  
   127  120  129 1   
   128  121  123 ar  
   129  121  130 1   
   130  122  124 ar  
   131  122  131 1   
   132  123  124 ar  
   133  123  132 1   
   134  124  133 1   
   135  134  135 1   
   136  134  140 1   
   137  135  136 1   
   138  135  138 1   
   139  135  141 1   
   140  136  137 2   
   141  136  148 1   
   142  138  139 1   
   143  138  142 1   
   144  138  143 1   
   145  139  140 1   
   146  139  144 1   
   147  139  145 1   
   148  140  146 1   
   149  140  147 1   
   150  148  149 1   
   151  148  157 1   
   152  149  150 1   
   153  149  152 1   
   154  149  158 1   
   155  150  151 2   
   156  150  163 1   
   157  152  153 1   
   158  152  159 1   
   159  152  160 1   
   160  153  154 1   
   161  153  161 1   
   162  153  162 1   
   163  154  155 1   
   164  154  156 1   
   165  163  164 1   
   166  163  168 1   
   167  164  165 1   
   168  164  166 1   
   169  164  167 1   
   170  170  172 1   
   171  170  174 1   
   172  171  173 1   
   173  171  175 1   
   174  176  177 1   
   175  176  178 1   
   176  179  180 1   
   177  179  181 1   
@<TRIPOS>SUBSTRUCTURE
     1 MOL         1 TEMP              0 ****  ****    0 ROOT
