@<TRIPOS>MOLECULE
MOL
  184   179     1     0     0
SMALL
resp


@<TRIPOS>ATOM
      1 C1          3.7780   -2.6350    3.7760 c3        1 MOL     -0.256354
      2 C2          4.5800   -1.5580    3.0440 c         1 MOL      0.638459
      3 O1          4.0700   -0.7260    2.2890 o         1 MOL     -0.572501
      4 H1          3.6090   -2.3240    4.8070 hc        1 MOL      0.062355
      5 H2          2.8190   -2.7760    3.2780 hc        1 MOL      0.062355
      6 H3          4.3340   -3.5720    3.7670 hc        1 MOL      0.062355
      7 N1          5.9440   -1.6710    3.1320 n         1 MOL     -0.440863
      8 C3          6.9610   -0.6720    2.8580 c3        1 MOL      0.045739
      9 C4          7.2450   -0.5770    1.3120 c         1 MOL      0.618042
     10 O2          6.7520   -1.2860    0.4240 o         1 MOL     -0.504090
     11 C5          8.1510   -1.0160    3.6890 c3        1 MOL     -0.264721
     12 C6          8.6370   -2.4670    3.6670 c         1 MOL      0.731341
     13 O3          7.9060   -3.3780    4.1540 o         1 MOL     -0.701047
     14 O4          9.8260   -2.7450    3.3980 o         1 MOL     -0.701047
     15 H4          6.2880   -2.4070    3.7360 hn        1 MOL      0.228534
     16 H5          6.6560    0.3370    3.1320 h1        1 MOL      0.042009
     17 H6          7.9580   -0.7270    4.7210 hc        1 MOL      0.043159
     18 H7          8.9080   -0.2850    3.4080 hc        1 MOL      0.043159
     19 N2          8.1580    0.3520    1.0110 n         1 MOL     -0.618288
     20 C7          8.3650    0.8680   -0.3590 c3        1 MOL      0.177508
     21 C8          7.0370    1.2520   -0.9940 c         1 MOL      0.669010
     22 O5          6.3420    2.0320   -0.4250 o         1 MOL     -0.577469
     23 C9          9.3920    2.0500   -0.3780 c3        1 MOL     -0.351887
     24 H8          8.5590    0.8810    1.7840 hn        1 MOL      0.344969
     25 H9          8.7570    0.0510   -0.9660 h1        1 MOL      0.035108
     26 H10        10.2720    1.8330    0.2250 hc        1 MOL      0.093596
     27 H11         9.7080    2.2160   -1.4110 hc        1 MOL      0.093596
     28 H12         8.9490    2.9660   -0.0200 hc        1 MOL      0.093596
     29 N3          6.6550    0.7360   -2.1520 n         1 MOL     -0.608747
     30 C10         5.3560    0.7150   -2.7660 c3        1 MOL     -0.007646
     31 C11         5.1060    2.0370   -3.6230 c         1 MOL      0.652952
     32 O6          5.8860    2.4080   -4.5410 o         1 MOL     -0.578794
     33 C12         5.1940   -0.5920   -3.4980 c3        1 MOL     -0.134818
     34 C13         3.7480   -0.8110   -3.9580 c         1 MOL      0.542369
     35 O7          2.9740   -1.2560   -3.0730 o         1 MOL     -0.669756
     36 O8          3.4040   -0.3760   -5.1160 o         1 MOL     -0.669756
     37 H13         7.3220    0.1050   -2.5890 hn        1 MOL      0.283655
     38 H14         4.6510    0.6690   -1.9290 h1        1 MOL      0.152533
     39 H15         5.4780   -1.4170   -2.8350 hc        1 MOL      0.056902
     40 H16         5.9150   -0.7240   -4.3070 hc        1 MOL      0.056902
     41 N4          3.9940    2.7060   -3.4460 n         1 MOL     -0.311527
     42 C14         3.7070    4.1150   -3.7610 c3        1 MOL     -0.211829
     43 C15         2.2710    4.5750   -3.7060 c         1 MOL      0.677710
     44 O9          1.9930    5.6720   -4.2330 o         1 MOL     -0.599586
     45 H17         3.4060    2.3860   -2.6890 hn        1 MOL      0.179631
     46 H18         3.9560    4.3780   -4.7920 h1        1 MOL      0.116816
     47 H19         4.3820    4.7110   -3.1480 h1        1 MOL      0.116816
     48 N5          1.3690    3.8930   -3.0150 n         1 MOL     -0.529137
     49 C16        -0.0730    4.2890   -2.8540 c3        1 MOL      0.077254
     50 C17        -0.4290    5.3470   -1.7440 c         1 MOL      0.555985
     51 O10         0.1360    5.3600   -0.6460 o         1 MOL     -0.523961
     52 C18        -0.9640    3.0370   -2.6960 c3        1 MOL     -0.090747
     53 C19        -2.3590    3.2340   -3.0180 c         1 MOL      0.673280
     54 N6         -3.1740    2.2390   -2.7210 n         1 MOL     -0.835720
     55 O11        -2.8080    4.2450   -3.5110 o         1 MOL     -0.589769
     56 H20         1.6650    3.0140   -2.6200 hn        1 MOL      0.353304
     57 H21        -0.4410    4.7910   -3.7490 h1        1 MOL      0.032001
     58 H22        -0.8310    2.5750   -1.7240 hc        1 MOL      0.057190
     59 H23        -0.5840    2.2450   -3.3470 hc        1 MOL      0.057190
     60 H24        -2.7850    1.4050   -2.3170 hn        1 MOL      0.364883
     61 H25        -4.1510    2.4020   -2.8950 hn        1 MOL      0.364883
     62 N7         -1.3320    6.2580   -2.0790 n         1 MOL     -0.408329
     63 C20        -1.7480    7.2950   -1.1290 c3        1 MOL     -0.021630
     64 C21        -2.6710    6.7530   -0.0060 c         1 MOL      0.444188
     65 O12        -3.6260    5.9810   -0.3450 o         1 MOL     -0.484680
     66 H26        -1.7540    6.3060   -2.9860 hn        1 MOL      0.313073
     67 H27        -2.2550    8.1740   -1.5240 h1        1 MOL      0.053944
     68 H28        -0.8290    7.6930   -0.6940 h1        1 MOL      0.053944
     69 N8         -2.4100    7.0620    1.2300 n         1 MOL     -0.195711
     70 C22        -3.4180    6.8590    2.2850 c3        1 MOL     -0.405216
     71 C23        -3.3290    5.4270    2.8430 c         1 MOL      0.419579
     72 O13        -4.3560    4.9300    3.3570 o         1 MOL     -0.551173
     73 C24        -3.2420    7.7840    3.4750 c3        1 MOL      0.647053
     74 C25        -1.9470    7.6670    4.2670 c3        1 MOL     -0.327632
     75 O14        -3.1670    9.0850    3.0460 oh        1 MOL     -0.692595
     76 H29        -1.7070    7.7650    1.4240 hn        1 MOL      0.200361
     77 H30        -4.4230    6.9130    1.8580 h1        1 MOL      0.182372
     78 H31        -4.0120    7.7000    4.2400 h1        1 MOL     -0.002517
     79 H32        -2.2620    9.2910    2.8150 ho        1 MOL      0.393365
     80 H33        -1.1100    7.3090    3.6650 hc        1 MOL      0.070370
     81 H34        -1.7890    8.6110    4.7820 hc        1 MOL      0.070370
     82 H35        -2.1420    6.8470    4.9550 hc        1 MOL      0.070370
     83 N9         -2.2280    4.7070    2.6620 n         1 MOL     -0.062810
     84 C26        -2.2400    3.2630    2.8650 c3        1 MOL     -0.038075
     85 C27        -1.4540    2.5380    1.7640 c         1 MOL      0.468339
     86 O15        -0.5930    3.0960    1.1090 o         1 MOL     -0.452783
     87 C28        -1.8220    2.8000    4.2730 c3        1 MOL      0.133526
     88 C29        -0.5000    3.3700    4.8360 c3        1 MOL     -0.073274
     89 C30        -2.9280    3.2490    5.1990 c3        1 MOL     -0.292633
     90 C31         0.6930    2.7310    4.1410 c3        1 MOL      0.055489
     91 H36        -1.4500    5.1490    2.1950 hn        1 MOL      0.150966
     92 H37        -3.2250    2.8260    2.7030 h1        1 MOL      0.078610
     93 H38        -1.7550    1.7090    4.2670 hc        1 MOL      0.033897
     94 H39        -0.4570    3.1180    5.8880 hc        1 MOL     -0.003219
     95 H40        -0.4130    4.4550    4.9060 hc        1 MOL     -0.003219
     96 H41        -3.9250    3.2290    4.7690 hc        1 MOL      0.063379
     97 H42        -2.9160    2.4950    5.9810 hc        1 MOL      0.063379
     98 H43        -2.7810    4.2150    5.6800 hc        1 MOL      0.063379
     99 H44         1.6230    2.9760    4.6640 hc        1 MOL      0.004224
    100 H45         0.6150    1.6430    4.2160 hc        1 MOL      0.004224
    101 H46         0.8490    3.1340    3.1470 hc        1 MOL      0.004224
    102 N10        -1.8220    1.2940    1.5740 n         1 MOL     -0.691453
    103 C32        -1.1730    0.4550    0.5920 c3        1 MOL      0.254732
    104 C33        -2.2380   -0.1820   -0.3400 c         1 MOL      0.696653
    105 O16        -1.9090   -0.3920   -1.4800 o         1 MOL     -0.635826
    106 C34        -0.3780   -0.5970    1.3700 c3        1 MOL     -0.129217
    107 C35         0.4130   -1.4240    0.3940 c         1 MOL      0.766046
    108 O17         1.1020   -0.8820   -0.4560 o         1 MOL     -0.761106
    109 O18         0.2600   -2.6660    0.3000 o         1 MOL     -0.761106
    110 H47        -2.6920    0.9550    1.9620 hn        1 MOL      0.320431
    111 H48        -0.4670    1.0510    0.0080 h1        1 MOL      0.084027
    112 H49        -1.0190   -1.1870    2.0250 hc        1 MOL      0.016095
    113 H50         0.4200   -0.1160    1.9310 hc        1 MOL      0.016095
    114 N11        -3.4330   -0.5570    0.1460 n         1 MOL     -0.645944
    115 C36        -4.4630   -1.1920   -0.6930 c3        1 MOL      0.418351
    116 C37        -5.0120   -2.4480    0.0030 c         1 MOL      0.246784
    117 O19        -5.2100   -2.4330    1.2440 o         1 MOL     -0.487916
    118 C38        -5.5930   -0.1210   -1.0400 c3        1 MOL     -0.336658
    119 C39        -6.8980   -0.6240   -1.6880 ca        1 MOL      0.156856
    120 C40        -7.1400   -0.3550   -3.0700 ca        1 MOL     -0.142599
    121 C41        -7.9010   -1.1900   -0.8820 ca        1 MOL     -0.142599
    122 C42        -8.3960   -0.7080   -3.6330 ca        1 MOL     -0.129550
    123 C43        -9.0540   -1.6900   -1.4950 ca        1 MOL     -0.129550
    124 C44        -9.2920   -1.3950   -2.8280 ca        1 MOL     -0.122917
    125 H51        -3.6300   -0.2880    1.1090 hn        1 MOL      0.301031
    126 H52        -3.9640   -1.5220   -1.6050 h1        1 MOL      0.010221
    127 H53        -5.2020    0.7020   -1.6320 hc        1 MOL      0.108053
    128 H54        -5.8650    0.3210   -0.0830 hc        1 MOL      0.108053
    129 H55        -6.4000    0.1280   -3.7010 ha        1 MOL      0.123525
    130 H56        -7.7490   -1.1910    0.1890 ha        1 MOL      0.123525
    131 H57        -8.6400   -0.5260   -4.6650 ha        1 MOL      0.119737
    132 H58        -9.8890   -2.1350   -0.9740 ha        1 MOL      0.119737
    133 H59       -10.2370   -1.7160   -3.2380 ha        1 MOL      0.103604
    134 N12        -5.2140   -3.5280   -0.6770 n         1 MOL     -0.099825
    135 C45        -5.8660   -4.6980   -0.0760 c3        1 MOL     -0.022700
    136 C46        -5.0060   -5.3880    0.9480 c         1 MOL      0.346347
    137 O20        -5.5060   -6.0310    1.8210 o         1 MOL     -0.505360
    138 C47        -6.2790   -5.5800   -1.2300 c3        1 MOL      0.159109
    139 C48        -6.4810   -4.6530   -2.4420 c3        1 MOL     -0.220539
    140 C49        -5.3400   -3.5960   -2.1390 c3        1 MOL      0.074795
    141 H60        -6.7910   -4.3070    0.3630 h1        1 MOL      0.079066
    142 H61        -5.5000   -6.3250   -1.4140 hc        1 MOL     -0.009084
    143 H62        -7.1570   -6.1920   -1.0100 hc        1 MOL     -0.009084
    144 H63        -6.2800   -5.0610   -3.4270 hc        1 MOL      0.080799
    145 H64        -7.4760   -4.2240   -2.3560 hc        1 MOL      0.080799
    146 H65        -4.3900   -3.9430   -2.5220 h1        1 MOL      0.008692
    147 H66        -5.6110   -2.6670   -2.6340 h1        1 MOL      0.008692
    148 N13        -3.6440   -5.3590    0.9120 n         1 MOL     -0.171467
    149 C50        -2.6770   -5.9630    1.8410 c3        1 MOL     -0.140029
    150 C51        -2.8280   -5.3970    3.2610 c         1 MOL      0.387740
    151 O21        -2.4950   -6.0120    4.3220 o         1 MOL     -0.548334
    152 C52        -1.2320   -5.7390    1.4010 c3        1 MOL      0.141280
    153 C53        -1.0200   -6.4950    0.0770 c3        1 MOL     -0.076660
    154 C54         0.2630   -5.9700   -0.5350 c         1 MOL      0.723070
    155 O22         1.2670   -6.5760   -0.1840 o         1 MOL     -0.730057
    156 O23         0.2320   -5.0610   -1.3730 o         1 MOL     -0.730057
    157 H67        -3.2890   -4.7880    0.1600 hn        1 MOL      0.242600
    158 H68        -2.8870   -7.0320    1.8770 h1        1 MOL      0.118265
    159 H69        -0.5990   -6.1670    2.1810 hc        1 MOL     -0.003717
    160 H70        -1.0880   -4.6650    1.2550 hc        1 MOL     -0.003717
    161 H71        -1.8650   -6.3020   -0.5870 hc        1 MOL     -0.026119
    162 H72        -0.9350   -7.5640    0.2030 hc        1 MOL     -0.026119
    163 N14        -3.4960   -4.2410    3.4200 n         1 MOL     -0.060042
    164 C55        -3.5410   -3.4200    4.6410 c3        1 MOL     -0.242667
    165 H73        -3.0560   -3.9560    5.4560 h1        1 MOL      0.097509
    166 H74        -3.0220   -2.4780    4.4650 h1        1 MOL      0.097509
    167 H75        -4.5790   -3.2200    4.9060 h1        1 MOL      0.097509
    168 H76        -3.8360   -3.8720    2.5450 hn        1 MOL      0.122584
    169 Ca1         1.8460   -3.0530   -1.7200 Ca        1 MOL      1.677820
    170 O24         2.6910   -4.4330    0.7990 oh        1 MOL     -0.779759
    171 H77         2.1280   -4.2380    1.5460 ho        1 MOL      0.386886
    172 H78         2.5220   -5.3500    0.6070 ho        1 MOL      0.386886
    173 O25        -0.4650   -2.1430   -3.1610 oh        1 MOL     -0.779759
    174 H79        -1.2250   -1.6400   -2.8740 ho        1 MOL      0.386886
    175 H80        -0.2100   -1.7520   -3.9950 ho        1 MOL      0.386886
    176 O26         4.1450   -2.2510   -0.4930 oh        1 MOL     -0.779759
    177 H81         4.4540   -2.5980    0.3490 ho        1 MOL      0.386886
    178 H82         4.5590   -1.3850   -0.5480 ho        1 MOL      0.386886
    179 O27         3.7200   -4.9110   -2.3020 oh        1 MOL     -0.779759
    180 H83         3.2710   -5.7140   -2.5500 ho        1 MOL      0.386886
    181 H84         4.5990   -5.0110   -2.6580 ho        1 MOL      0.386886
    182 O28         1.8310   -4.3230   -4.2610 oh        1 MOL     -0.779759
    183 H85         1.7490   -5.2750   -4.3210 ho        1 MOL      0.386886
    184 H86         1.6790   -4.0110   -5.1520 ho        1 MOL      0.386886
@<TRIPOS>BOND
     1    1    2 1   
     2    1    4 1   
     3    1    5 1   
     4    1    6 1   
     5    2    3 2   
     6    2    7 1   
     7    7    8 1   
     8    7   15 1   
     9    8    9 1   
    10    8   11 1   
    11    8   16 1   
    12    9   10 2   
    13    9   19 1   
    14   11   12 1   
    15   11   17 1   
    16   11   18 1   
    17   12   13 1   
    18   12   14 1   
    19   19   20 1   
    20   19   24 1   
    21   20   21 1   
    22   20   23 1   
    23   20   25 1   
    24   21   22 2   
    25   21   29 1   
    26   23   26 1   
    27   23   27 1   
    28   23   28 1   
    29   29   30 1   
    30   29   37 1   
    31   30   31 1   
    32   30   33 1   
    33   30   38 1   
    34   31   32 2   
    35   31   41 1   
    36   33   34 1   
    37   33   39 1   
    38   33   40 1   
    39   34   35 1   
    40   34   36 1   
    41   41   42 1   
    42   41   45 1   
    43   42   43 1   
    44   42   46 1   
    45   42   47 1   
    46   43   44 2   
    47   43   48 1   
    48   48   49 1   
    49   48   56 1   
    50   49   50 1   
    51   49   52 1   
    52   49   57 1   
    53   50   51 2   
    54   50   62 1   
    55   52   53 1   
    56   52   58 1   
    57   52   59 1   
    58   53   54 1   
    59   53   55 2   
    60   54   60 1   
    61   54   61 1   
    62   62   63 1   
    63   62   66 1   
    64   63   64 1   
    65   63   67 1   
    66   63   68 1   
    67   64   65 2   
    68   64   69 1   
    69   69   70 1   
    70   69   76 1   
    71   70   71 1   
    72   70   73 1   
    73   70   77 1   
    74   71   72 2   
    75   71   83 1   
    76   73   74 1   
    77   73   75 1   
    78   73   78 1   
    79   74   80 1   
    80   74   81 1   
    81   74   82 1   
    82   75   79 1   
    83   83   84 1   
    84   83   91 1   
    85   84   85 1   
    86   84   87 1   
    87   84   92 1   
    88   85   86 2   
    89   85  102 1   
    90   87   88 1   
    91   87   89 1   
    92   87   93 1   
    93   88   90 1   
    94   88   94 1   
    95   88   95 1   
    96   89   96 1   
    97   89   97 1   
    98   89   98 1   
    99   90   99 1   
   100   90  100 1   
   101   90  101 1   
   102  102  103 1   
   103  102  110 1   
   104  103  104 1   
   105  103  106 1   
   106  103  111 1   
   107  104  105 2   
   108  104  114 1   
   109  106  107 1   
   110  106  112 1   
   111  106  113 1   
   112  107  108 1   
   113  107  109 1   
   114  114  115 1   
   115  114  125 1   
   116  115  116 1   
   117  115  118 1   
   118  115  126 1   
   119  116  117 2   
   120  116  134 1   
   121  118  119 1   
   122  118  127 1   
   123  118  128 1   
   124  119  120 ar  
   125  119  121 ar  
   126  120  122 ar  
   127  120  129 1   
   128  121  123 ar  
   129  121  130 1   
   130  122  124 ar  
   131  122  131 1   
   132  123  124 ar  
   133  123  132 1   
   134  124  133 1   
   135  134  135 1   
   136  134  140 1   
   137  135  136 1   
   138  135  138 1   
   139  135  141 1   
   140  136  137 2   
   141  136  148 1   
   142  138  139 1   
   143  138  142 1   
   144  138  143 1   
   145  139  140 1   
   146  139  144 1   
   147  139  145 1   
   148  140  146 1   
   149  140  147 1   
   150  148  149 1   
   151  148  157 1   
   152  149  150 1   
   153  149  152 1   
   154  149  158 1   
   155  150  151 2   
   156  150  163 1   
   157  152  153 1   
   158  152  159 1   
   159  152  160 1   
   160  153  154 1   
   161  153  161 1   
   162  153  162 1   
   163  154  155 1   
   164  154  156 1   
   165  163  164 1   
   166  163  168 1   
   167  164  165 1   
   168  164  166 1   
   169  164  167 1   
   170  170  171 1   
   171  170  172 1   
   172  173  174 1   
   173  173  175 1   
   174  176  177 1   
   175  176  178 1   
   176  179  180 1   
   177  179  181 1   
   178  182  183 1   
   179  182  184 1   
@<TRIPOS>SUBSTRUCTURE
     1 MOL         1 TEMP              0 ****  ****    0 ROOT
