@<TRIPOS>MOLECULE
MOL
  192   187     1     0     0
SMALL
resp


@<TRIPOS>ATOM
      1 C1          5.6700    2.8180    5.6450 c3        1 MOL     -0.343850
      2 C2          5.1660    2.3910    4.1920 c         1 MOL      0.733160
      3 O1          4.8030    3.2410    3.3530 o         1 MOL     -0.592949
      4 H1          6.2070    3.7650    5.5790 hc        1 MOL      0.086963
      5 H2          4.8130    2.9320    6.3080 hc        1 MOL      0.086963
      6 H3          6.3360    2.0500    6.0390 hc        1 MOL      0.086963
      7 N1          5.2140    1.0810    3.9120 n         1 MOL     -0.502915
      8 C3          4.8350    0.4520    2.6210 c3        1 MOL      0.423500
      9 C4          3.3750    0.3890    2.3120 c         1 MOL     -0.168056
     10 O2          3.0330   -0.1230    1.2510 o         1 MOL     -0.091715
     11 C5          5.4800   -0.9880    2.4220 c3        1 MOL     -0.080909
     12 C6          6.9820   -0.9770    2.8030 c         1 MOL      0.670360
     13 O3          7.8290   -0.7880    1.9270 o         1 MOL     -0.695832
     14 O4          7.3330   -1.2360    3.9620 o         1 MOL     -0.695832
     15 H4          5.4240    0.3980    4.6200 hn        1 MOL      0.214859
     16 H5          5.3290    1.0220    1.8320 h1        1 MOL      0.012976
     17 H6          5.4000   -1.3430    1.3860 hc        1 MOL     -0.047005
     18 H7          5.0380   -1.7070    3.1050 hc        1 MOL     -0.047005
     19 N2          2.4640    0.9450    3.1120 n         1 MOL     -0.134257
     20 C7          1.0070    0.6460    2.9300 c3        1 MOL      0.067361
     21 C8          0.3900    1.9390    2.2890 c         1 MOL      0.411242
     22 O5          0.6810    2.9590    2.8450 o         1 MOL     -0.475209
     23 C9          0.3040    0.2090    4.2500 c3        1 MOL     -0.270206
     24 C10         0.2550   -1.3020    4.4520 c3        1 MOL     -0.041830
     25 C11         1.6290   -2.0300    4.2890 c3        1 MOL      0.120892
     26 C12         1.4180   -3.3490    4.9440 c3        1 MOL     -0.158233
     27 N3          2.6780   -4.1080    5.1790 n4        1 MOL     -0.214824
     28 H8          2.8080    1.5170    3.8650 hn        1 MOL      0.213999
     29 H9          0.9060   -0.1500    2.1940 h1        1 MOL      0.038437
     30 H10        -0.7040    0.6240    4.2230 hc        1 MOL      0.093822
     31 H11         0.8960    0.7010    5.0230 hc        1 MOL      0.093822
     32 H12        -0.4540   -1.6790    3.7160 hc        1 MOL      0.049633
     33 H13        -0.1020   -1.4460    5.4720 hc        1 MOL      0.049633
     34 H14         2.3970   -1.4920    4.8530 hc        1 MOL      0.020729
     35 H15         1.9120   -2.1290    3.2450 hc        1 MOL      0.020729
     36 H16         0.7300   -4.0170    4.4140 hx        1 MOL      0.117194
     37 H17         0.9690   -3.1590    5.9210 hx        1 MOL      0.117194
     38 H18         3.1960   -4.4440    4.3890 hn        1 MOL      0.281406
     39 H19         3.3590   -3.6100    5.7400 hn        1 MOL      0.281406
     40 H20         2.5470   -4.9690    5.6930 hn        1 MOL      0.281406
     41 N4         -0.5840    1.8900    1.3070 n         1 MOL     -0.207809
     42 C13        -1.2130    0.7150    0.5380 c3        1 MOL     -0.046915
     43 C14        -1.6150   -0.5400    1.3410 c         1 MOL      0.416790
     44 O6         -1.1110   -1.6590    1.0890 o         1 MOL     -0.512017
     45 C15        -0.4880    0.3850   -0.7420 c3        1 MOL     -0.235857
     46 C16        -0.3470    1.6070   -1.6400 c         1 MOL      0.710061
     47 O7          0.4800    1.5000   -2.6260 o         1 MOL     -0.704444
     48 O8         -0.9950    2.6140   -1.4270 o         1 MOL     -0.704444
     49 H21        -0.9170    2.7770    0.9640 hn        1 MOL      0.086050
     50 H22        -2.1340    1.1270    0.1440 h1        1 MOL      0.036377
     51 H23        -1.0570   -0.3420   -1.3180 hc        1 MOL      0.107600
     52 H24         0.4630   -0.0660   -0.4510 hc        1 MOL      0.107600
     53 N5         -2.3330   -0.2950    2.3920 n         1 MOL     -0.152831
     54 C17        -3.3400    0.7870    2.4910 c3        1 MOL     -0.022264
     55 C18        -4.5460    0.3110    3.2920 c         1 MOL      0.491657
     56 O9         -4.4520   -0.6190    4.1030 o         1 MOL     -0.551992
     57 H25        -2.4120   -1.0770    3.0290 hn        1 MOL      0.191486
     58 H26        -3.6900    1.1510    1.5250 h1        1 MOL      0.082712
     59 H27        -2.9370    1.6180    3.0640 h1        1 MOL      0.082712
     60 N6         -5.7100    0.9070    3.0850 n         1 MOL     -0.385004
     61 C19        -6.1550    2.0150    2.3190 c3        1 MOL      0.135030
     62 C20        -7.0630    1.5900    1.1640 c         1 MOL      0.411193
     63 O10        -7.6710    0.5070    1.2740 o         1 MOL     -0.424776
     64 C21        -6.8360    2.9560    3.2240 c3        1 MOL     -0.153899
     65 C22        -8.0790    2.4280    4.0320 c         1 MOL      0.668055
     66 O11        -8.0720    1.2810    4.5770 o         1 MOL     -0.627286
     67 O12        -9.0860    3.2380    4.1670 o         1 MOL     -0.627286
     68 H28        -6.4600    0.4790    3.6120 hn        1 MOL      0.283153
     69 H29        -5.3160    2.4960    1.8130 h1        1 MOL     -0.035559
     70 H30        -7.1470    3.7620    2.5480 hc        1 MOL      0.004828
     71 H31        -6.1290    3.3680    3.9390 hc        1 MOL      0.004828
     72 N7         -7.1430    2.4160    0.0860 n         1 MOL     -0.179929
     73 C23        -7.9750    2.2360   -1.1200 c3        1 MOL     -0.321879
     74 C24        -7.4760    1.0860   -1.9520 c         1 MOL      0.561433
     75 O13        -8.2570    0.2140   -2.3530 o         1 MOL     -0.522044
     76 H32        -6.5570    3.2370    0.1130 hn        1 MOL      0.208210
     77 H33        -7.9640    3.1690   -1.6840 h1        1 MOL      0.150633
     78 H34        -9.0310    1.9840   -0.9530 h1        1 MOL      0.150633
     79 N8         -6.1300    0.9210   -2.0560 n         1 MOL     -0.427351
     80 C25        -5.4320   -0.2510   -2.5700 c3        1 MOL      0.308489
     81 C26        -4.6190   -0.9230   -1.4660 c         1 MOL      0.416400
     82 O14        -4.0990   -0.2300   -0.5600 o         1 MOL     -0.549642
     83 C27        -4.4650    0.0580   -3.7040 c3        1 MOL      0.115289
     84 C28        -5.0440    0.7440   -4.8830 c3        1 MOL     -0.242935
     85 O15        -3.8580   -1.1040   -4.1610 oh        1 MOL     -0.629468
     86 H35        -5.5530    1.5900   -1.5810 hn        1 MOL      0.148727
     87 H36        -6.1200   -1.0510   -2.8630 h1        1 MOL      0.035861
     88 H37        -3.5740    0.5290   -3.2740 h1        1 MOL      0.072069
     89 H38        -3.1810   -0.7710   -4.7550 ho        1 MOL      0.428712
     90 H39        -5.6660    1.5940   -4.5860 hc        1 MOL      0.067385
     91 H40        -4.2780    1.1040   -5.5850 hc        1 MOL      0.067385
     92 H41        -5.7940    0.2050   -5.4610 hc        1 MOL      0.067385
     93 N9         -4.5660   -2.2670   -1.4040 n         1 MOL     -0.280963
     94 C29        -4.0350   -3.0070   -0.2370 c3        1 MOL     -0.017127
     95 C30        -2.8300   -3.9590   -0.5180 c         1 MOL      0.338169
     96 O16        -2.4130   -4.7520    0.3390 o         1 MOL     -0.517206
     97 C31        -5.2020   -3.5730    0.6210 c3        1 MOL     -0.060088
     98 C32        -5.9670   -4.5800   -0.3230 c3        1 MOL      0.182735
     99 C33        -6.2160   -2.4760    1.0550 c3        1 MOL     -0.172139
    100 C34        -5.1360   -5.8590   -0.5080 c3        1 MOL     -0.197036
    101 H42        -4.9110   -2.7540   -2.2140 hn        1 MOL      0.287929
    102 H43        -3.5630   -2.3100    0.4570 h1        1 MOL      0.134260
    103 H44        -4.8110   -4.0970    1.4970 hc        1 MOL      0.084268
    104 H45        -6.2420   -4.1050   -1.2640 hc        1 MOL     -0.042615
    105 H46        -6.9230   -4.8440    0.1220 hc        1 MOL     -0.042615
    106 H47        -6.7610   -2.0440    0.2250 hc        1 MOL      0.062724
    107 H48        -6.9830   -2.9620    1.6670 hc        1 MOL      0.062724
    108 H49        -5.7340   -1.7690    1.7330 hc        1 MOL      0.062724
    109 H50        -4.5500   -6.1450    0.3660 hc        1 MOL      0.039862
    110 H51        -5.8300   -6.6030   -0.8780 hc        1 MOL      0.039862
    111 H52        -4.4290   -5.6740   -1.3080 hc        1 MOL      0.039862
    112 N10        -2.3280   -3.9410   -1.7390 n         1 MOL      0.005020
    113 C35        -1.3130   -4.9140   -2.2130 c3        1 MOL     -0.118364
    114 C36         0.0970   -4.7040   -1.5780 c         1 MOL      0.443362
    115 O17         0.9380   -5.5650   -1.7140 o         1 MOL     -0.526558
    116 C37        -1.1960   -4.7330   -3.7330 c3        1 MOL      0.402113
    117 C38        -0.6110   -3.4020   -4.2130 c3        1 MOL     -0.163483
    118 O18        -2.3670   -4.9470   -4.5120 oh        1 MOL     -0.676526
    119 H53        -2.7780   -3.3410   -2.4090 hn        1 MOL      0.045103
    120 H54        -1.6410   -5.9340   -2.0310 h1        1 MOL      0.125440
    121 H55        -0.4700   -5.4700   -4.0760 h1        1 MOL      0.001669
    122 H56        -2.4160   -4.2850   -5.1960 ho        1 MOL      0.405944
    123 H57         0.4360   -3.3690   -3.9010 hc        1 MOL      0.032452
    124 H58        -0.7560   -3.2670   -5.2870 hc        1 MOL      0.032452
    125 H59        -1.0560   -2.5220   -3.7620 hc        1 MOL      0.032452
    126 N11         0.3460   -3.5580   -0.8940 n         1 MOL     -0.248440
    127 C39         1.6240   -2.9710   -0.3840 c3        1 MOL      0.037313
    128 C40         2.5600   -2.5300   -1.5070 c         1 MOL      0.456126
    129 O19         2.6250   -3.1980   -2.5440 o         1 MOL     -0.478296
    130 C41         2.3670   -4.0380    0.5430 c3        1 MOL      0.307775
    131 C42         1.4800   -4.5720    1.6420 c3        1 MOL     -0.408148
    132 O20         3.5710   -3.5080    1.0950 oh        1 MOL     -0.637658
    133 H60        -0.4790   -3.0490   -0.5930 hn        1 MOL      0.052785
    134 H61         1.4360   -2.1270    0.2850 h1        1 MOL      0.177292
    135 H62         2.6450   -4.8700   -0.1080 h1        1 MOL      0.037491
    136 H63         3.9470   -4.2690    1.5370 ho        1 MOL      0.376984
    137 H64         0.6600   -3.9370    1.9860 hc        1 MOL      0.109112
    138 H65         1.0020   -5.4650    1.2480 hc        1 MOL      0.109112
    139 H66         2.0100   -4.9730    2.5080 hc        1 MOL      0.109112
    140 N12         3.2950   -1.4040   -1.2670 n         1 MOL     -0.282620
    141 C43         4.4480   -1.0480   -2.1930 c3        1 MOL     -0.008989
    142 C44         4.6990    0.4480   -2.2910 c         1 MOL      0.599197
    143 O21         5.2880    0.9770   -3.2530 o         1 MOL     -0.646650
    144 C45         5.7570   -1.6960   -1.7490 c3        1 MOL     -0.232030
    145 C46         6.9010   -1.5690   -2.7640 c3        1 MOL      0.016411
    146 C47         7.9740   -2.5290   -2.3670 c3        1 MOL      0.015589
    147 C48         9.1740   -2.3210   -3.3360 c3        1 MOL      0.162559
    148 N13        10.4400   -2.8430   -2.7640 n4        1 MOL     -0.495579
    149 H67         3.0550   -0.8040   -0.4930 hn        1 MOL      0.027512
    150 H68         4.1090   -1.4760   -3.1360 h1        1 MOL      0.062233
    151 H69         5.5000   -2.7480   -1.5900 hc        1 MOL      0.115742
    152 H70         6.1100   -1.2170   -0.8370 hc        1 MOL      0.115742
    153 H71         7.2830   -0.5500   -2.6980 hc        1 MOL      0.048976
    154 H72         6.6190   -1.7240   -3.8070 hc        1 MOL      0.048976
    155 H73         7.6230   -3.5480   -2.4740 hc        1 MOL      0.010104
    156 H74         8.3130   -2.3160   -1.3530 hc        1 MOL      0.010104
    157 H75         9.3090   -1.2550   -3.5050 hx        1 MOL      0.030990
    158 H76         8.8570   -2.7540   -4.2800 hx        1 MOL      0.030990
    159 H77        10.6660   -2.3200   -1.9360 hn        1 MOL      0.362639
    160 H78        10.2870   -3.8320   -2.6170 hn        1 MOL      0.362639
    161 H79        11.1680   -2.7320   -3.4580 hn        1 MOL      0.362639
    162 N14         4.3190    1.0670   -1.2050 n         1 MOL     -0.175840
    163 C49         4.2800    2.5600   -1.0990 c3        1 MOL     -0.260853
    164 C50         5.7250    3.2020   -0.9310 c         1 MOL      0.498745
    165 O22         6.5320    2.7320   -0.1070 o         1 MOL     -0.502732
    166 C51         3.1930    2.9860   -0.0180 c3        1 MOL      0.582431
    167 C52         2.9060    4.4490    0.1270 c3        1 MOL     -0.205096
    168 C53         2.5330    5.1100   -1.1660 c         1 MOL      0.333123
    169 O23         3.3930    5.8040   -1.7750 o         1 MOL     -0.601192
    170 O24         1.3670    4.8820   -1.6290 o         1 MOL     -0.601192
    171 H80         4.1350    0.4720   -0.4110 hn        1 MOL      0.153403
    172 H81         3.9880    2.9000   -2.0970 h1        1 MOL      0.166836
    173 H82         3.5560    2.6210    0.9510 hc        1 MOL     -0.157889
    174 H83         2.2340    2.5120   -0.1960 hc        1 MOL     -0.157889
    175 H84         3.7630    4.9810    0.5440 hc        1 MOL      0.073518
    176 H85         2.1510    4.5870    0.9120 hc        1 MOL      0.073518
    177 N15         6.0090    4.2440   -1.6530 n         1 MOL     -0.308243
    178 C54         7.2710    4.9540   -1.5370 c3        1 MOL     -0.136361
    179 H86         7.7210    4.7390   -0.5680 h1        1 MOL      0.078511
    180 H87         7.9450    4.6300   -2.3300 h1        1 MOL      0.078511
    181 H88         7.0940    6.0260   -1.6240 h1        1 MOL      0.078511
    182 H89         5.2630    4.6670   -2.1880 hn        1 MOL      0.306875
    183 Ca1        -1.1320    5.1870   -1.9500 Ca        1 MOL      1.601542
    184 O25        -1.1170    3.3170   -4.1570 oh        1 MOL     -0.845073
    185 H90        -0.3050    2.8230   -4.0290 ho        1 MOL      0.414285
    186 H91        -1.0550    3.6520   -5.0560 ho        1 MOL      0.414285
    187 O26        -3.3780    5.2190   -3.6460 oh        1 MOL     -0.845073
    188 H92        -4.2450    5.6040   -3.5220 ho        1 MOL      0.414285
    189 H93        -3.5440    4.3000   -3.8460 ho        1 MOL      0.414285
    190 O27        -0.1960    5.9930   -4.4250 oh        1 MOL     -0.845073
    191 H94        -0.2380    6.8750   -4.8060 ho        1 MOL      0.414285
    192 H95        -0.0880    5.4120   -5.1880 ho        1 MOL      0.414285
@<TRIPOS>BOND
     1    1    2 1   
     2    1    4 1   
     3    1    5 1   
     4    1    6 1   
     5    2    3 2   
     6    2    7 1   
     7    7    8 1   
     8    7   15 1   
     9    8    9 1   
    10    8   11 1   
    11    8   16 1   
    12    9   10 2   
    13    9   19 1   
    14   11   12 1   
    15   11   17 1   
    16   11   18 1   
    17   12   13 1   
    18   12   14 1   
    19   19   20 1   
    20   19   28 1   
    21   20   21 1   
    22   20   23 1   
    23   20   29 1   
    24   21   22 2   
    25   21   41 1   
    26   23   24 1   
    27   23   30 1   
    28   23   31 1   
    29   24   25 1   
    30   24   32 1   
    31   24   33 1   
    32   25   26 1   
    33   25   34 1   
    34   25   35 1   
    35   26   27 1   
    36   26   36 1   
    37   26   37 1   
    38   27   38 1   
    39   27   39 1   
    40   27   40 1   
    41   41   42 1   
    42   41   49 1   
    43   42   43 1   
    44   42   45 1   
    45   42   50 1   
    46   43   44 2   
    47   43   53 1   
    48   45   46 1   
    49   45   51 1   
    50   45   52 1   
    51   46   47 1   
    52   46   48 1   
    53   53   54 1   
    54   53   57 1   
    55   54   55 1   
    56   54   58 1   
    57   54   59 1   
    58   55   56 2   
    59   55   60 1   
    60   60   61 1   
    61   60   68 1   
    62   61   62 1   
    63   61   64 1   
    64   61   69 1   
    65   62   63 2   
    66   62   72 1   
    67   64   65 1   
    68   64   70 1   
    69   64   71 1   
    70   65   66 1   
    71   65   67 1   
    72   72   73 1   
    73   72   76 1   
    74   73   74 1   
    75   73   77 1   
    76   73   78 1   
    77   74   75 2   
    78   74   79 1   
    79   79   80 1   
    80   79   86 1   
    81   80   81 1   
    82   80   83 1   
    83   80   87 1   
    84   81   82 2   
    85   81   93 1   
    86   83   84 1   
    87   83   85 1   
    88   83   88 1   
    89   84   90 1   
    90   84   91 1   
    91   84   92 1   
    92   85   89 1   
    93   93   94 1   
    94   93  101 1   
    95   94   95 1   
    96   94   97 1   
    97   94  102 1   
    98   95   96 2   
    99   95  112 1   
   100   97   98 1   
   101   97   99 1   
   102   97  103 1   
   103   98  100 1   
   104   98  104 1   
   105   98  105 1   
   106   99  106 1   
   107   99  107 1   
   108   99  108 1   
   109  100  109 1   
   110  100  110 1   
   111  100  111 1   
   112  112  113 1   
   113  112  119 1   
   114  113  114 1   
   115  113  116 1   
   116  113  120 1   
   117  114  115 2   
   118  114  126 1   
   119  116  117 1   
   120  116  118 1   
   121  116  121 1   
   122  117  123 1   
   123  117  124 1   
   124  117  125 1   
   125  118  122 1   
   126  126  127 1   
   127  126  133 1   
   128  127  128 1   
   129  127  130 1   
   130  127  134 1   
   131  128  129 2   
   132  128  140 1   
   133  130  131 1   
   134  130  132 1   
   135  130  135 1   
   136  131  137 1   
   137  131  138 1   
   138  131  139 1   
   139  132  136 1   
   140  140  141 1   
   141  140  149 1   
   142  141  142 1   
   143  141  144 1   
   144  141  150 1   
   145  142  143 2   
   146  142  162 1   
   147  144  145 1   
   148  144  151 1   
   149  144  152 1   
   150  145  146 1   
   151  145  153 1   
   152  145  154 1   
   153  146  147 1   
   154  146  155 1   
   155  146  156 1   
   156  147  148 1   
   157  147  157 1   
   158  147  158 1   
   159  148  159 1   
   160  148  160 1   
   161  148  161 1   
   162  162  163 1   
   163  162  171 1   
   164  163  164 1   
   165  163  166 1   
   166  163  172 1   
   167  164  165 2   
   168  164  177 1   
   169  166  167 1   
   170  166  173 1   
   171  166  174 1   
   172  167  168 1   
   173  167  175 1   
   174  167  176 1   
   175  168  169 1   
   176  168  170 1   
   177  177  178 1   
   178  177  182 1   
   179  178  179 1   
   180  178  180 1   
   181  178  181 1   
   182  184  185 1   
   183  184  186 1   
   184  187  188 1   
   185  187  189 1   
   186  190  191 1   
   187  190  192 1   
@<TRIPOS>SUBSTRUCTURE
     1 MOL         1 TEMP              0 ****  ****    0 ROOT
