@<TRIPOS>MOLECULE
MOL
  175   173     1     0     0
SMALL
resp


@<TRIPOS>ATOM
      1 C1         -6.1790    8.1690    2.3500 c3        1 MOL     -0.420723
      2 C2         -6.8610    7.7200    1.0820 c         1 MOL      0.690523
      3 O1         -6.8350    8.3170    0.0340 o         1 MOL     -0.589342
      4 H1         -5.1140    8.3060    2.1600 hc        1 MOL      0.100430
      5 H2         -6.6120    9.1120    2.6820 hc        1 MOL      0.100430
      6 H3         -6.3160    7.4130    3.1240 hc        1 MOL      0.100430
      7 N1         -7.3560    6.4840    1.1410 n         1 MOL     -0.572343
      8 C3         -8.1490    5.8440    0.0610 c3        1 MOL      0.390645
      9 C4         -7.3160    4.9720   -0.8790 c         1 MOL      0.423690
     10 O2         -7.7800    4.6670   -1.9880 o         1 MOL     -0.528861
     11 C5         -9.3020    4.9630    0.7030 c3        1 MOL     -0.240611
     12 C6        -10.4810    4.7230   -0.2120 c         1 MOL      0.729840
     13 O3        -10.7870    5.5380   -1.0630 o         1 MOL     -0.735972
     14 O4        -11.0720    3.5780   -0.1080 o         1 MOL     -0.735972
     15 H4         -7.2520    5.9560    2.0000 hn        1 MOL      0.286068
     16 H5         -8.5610    6.6510   -0.5510 h1        1 MOL      0.010394
     17 H6         -9.5720    5.5780    1.5620 hc        1 MOL     -0.008166
     18 H7         -8.9450    3.9940    1.0480 hc        1 MOL     -0.008166
     19 N2         -6.2840    4.4430   -0.3960 n         1 MOL     -0.343967
     20 C7         -5.4250    3.5240   -1.0740 c3        1 MOL      0.222337
     21 C8         -4.6880    2.6980   -0.0580 c         1 MOL      0.469903
     22 O5         -4.0210    3.2950    0.8200 o         1 MOL     -0.538368
     23 C9         -4.4210    4.2930   -1.9220 c3        1 MOL     -0.334505
     24 H8         -5.9270    4.7910    0.4790 hn        1 MOL      0.180654
     25 H9         -6.0890    3.0090   -1.7690 h1        1 MOL      0.050650
     26 H10        -3.8970    5.0530   -1.3300 hc        1 MOL      0.098357
     27 H11        -3.5780    3.6690   -2.2240 hc        1 MOL      0.098357
     28 H12        -4.8170    4.8010   -2.7990 hc        1 MOL      0.098357
     29 N3         -4.6390    1.3690   -0.0500 n         1 MOL     -0.386701
     30 C10        -5.1690    0.4610   -1.0770 c3        1 MOL     -0.109235
     31 C11        -5.5440   -0.9120   -0.5010 c         1 MOL      0.572480
     32 O6         -5.0450   -1.3910    0.4880 o         1 MOL     -0.498123
     33 C12        -4.1180    0.3850   -2.2120 c3        1 MOL     -0.054966
     34 C13        -2.8200   -0.3100   -1.8290 c         1 MOL      0.760563
     35 O7         -2.5730   -1.4730   -2.1440 o         1 MOL     -0.756968
     36 O8         -1.9450    0.3620   -1.2810 o         1 MOL     -0.756968
     37 H13        -4.0850    0.9510    0.6930 hn        1 MOL      0.267232
     38 H14        -6.0780    0.9920   -1.3790 h1        1 MOL      0.084217
     39 H15        -3.8830    1.3570   -2.6270 hc        1 MOL      0.006353
     40 H16        -4.5490   -0.2530   -2.9830 hc        1 MOL      0.006353
     41 N4         -6.5300   -1.5460   -1.2070 n         1 MOL     -0.427087
     42 C14        -6.9810   -2.9350   -0.9790 c3        1 MOL      0.005652
     43 C15        -6.7560   -3.8000   -2.2020 c         1 MOL      0.596158
     44 O9         -7.5570   -3.7850   -3.0930 o         1 MOL     -0.559984
     45 H17        -6.9260   -1.1040   -2.0210 hn        1 MOL      0.307475
     46 H18        -8.0430   -2.9520   -0.7210 h1        1 MOL      0.058964
     47 H19        -6.4550   -3.4360   -0.1630 h1        1 MOL      0.058964
     48 N5         -5.7260   -4.6550   -2.2910 n         1 MOL     -0.543474
     49 C16        -4.4190   -4.4660   -1.5760 c3        1 MOL      0.120867
     50 C17        -4.3710   -5.2620   -0.2390 c         1 MOL      0.430298
     51 O10        -4.5720   -6.4600   -0.1860 o         1 MOL     -0.544537
     52 C18        -3.2290   -4.9410   -2.4820 c3        1 MOL     -0.059100
     53 C19        -1.8340   -4.5220   -1.9940 c         1 MOL      0.562996
     54 N6         -0.7770   -4.7530   -2.6980 n         1 MOL     -0.720504
     55 O11        -1.7250   -3.9630   -0.9350 o         1 MOL     -0.615613
     56 H20        -5.6960   -5.2970   -3.0720 hn        1 MOL      0.312889
     57 H21        -4.2710   -3.4100   -1.3730 h1        1 MOL      0.058724
     58 H22        -3.4190   -4.5350   -3.4720 hc        1 MOL      0.038774
     59 H23        -3.2380   -6.0210   -2.5830 hc        1 MOL      0.038774
     60 H24        -0.8440   -5.2350   -3.5860 hn        1 MOL      0.336923
     61 H25         0.1010   -4.3860   -2.3640 hn        1 MOL      0.336923
     62 N7         -4.1240   -4.5500    0.8710 n         1 MOL     -0.065231
     63 C20        -4.0180   -5.1670    2.2420 c3        1 MOL     -0.459128
     64 C21        -2.6260   -5.6220    2.7250 c         1 MOL      0.663195
     65 O12        -2.4840   -6.2620    3.7700 o         1 MOL     -0.554044
     66 H26        -4.0630   -3.5430    0.8150 hn        1 MOL      0.173515
     67 H27        -4.7000   -6.0130    2.2170 h1        1 MOL      0.154682
     68 H28        -4.3630   -4.5300    3.0510 h1        1 MOL      0.154682
     69 N8         -1.6510   -5.3590    1.8000 n         1 MOL     -0.382286
     70 C22        -0.2310   -5.4240    2.1250 c3        1 MOL     -0.020272
     71 C23         0.5800   -4.1010    2.0660 c         1 MOL      0.509338
     72 O13         0.1230   -3.1220    1.5830 o         1 MOL     -0.570064
     73 C24         0.4780   -6.5160    1.2130 c3        1 MOL      0.201801
     74 C25        -0.0970   -7.9330    1.3280 c3        1 MOL     -0.432622
     75 O14         0.2200   -6.1960   -0.1020 oh        1 MOL     -0.523657
     76 H29        -1.8460   -5.1430    0.8260 hn        1 MOL      0.345575
     77 H30        -0.1440   -5.7170    3.1760 h1        1 MOL      0.040503
     78 H31         1.5370   -6.5390    1.4600 h1        1 MOL      0.061584
     79 H32         0.9600   -5.6770   -0.4300 ho        1 MOL      0.362453
     80 H33        -0.1240   -8.3010    2.3540 hc        1 MOL      0.114245
     81 H34        -1.1370   -8.0060    1.0110 hc        1 MOL      0.114245
     82 H35         0.4590   -8.6340    0.7170 hc        1 MOL      0.114245
     83 N9          1.8760   -4.0180    2.3610 n         1 MOL     -0.294102
     84 C26         2.7020   -2.7890    2.2630 c3        1 MOL      0.061113
     85 C27         3.9460   -3.0840    1.3980 c         1 MOL      0.433066
     86 O15         4.6320   -4.0210    1.6870 o         1 MOL     -0.521572
     87 C28         3.0660   -2.1680    3.6500 c3        1 MOL      0.023995
     88 C29         4.2490   -1.1390    3.5090 c3        1 MOL      0.281964
     89 C30         1.8630   -1.6100    4.4300 c3        1 MOL     -0.289362
     90 C31         4.4940   -0.1460    4.6020 c3        1 MOL     -0.400121
     91 H36         2.4110   -4.8210    2.6750 hn        1 MOL      0.203841
     92 H37         2.0780   -2.0720    1.7350 h1        1 MOL      0.021575
     93 H38         3.4160   -3.0230    4.2250 hc        1 MOL     -0.005606
     94 H39         4.2220   -0.5920    2.5630 hc        1 MOL     -0.040351
     95 H40         5.1430   -1.7700    3.4670 hc        1 MOL     -0.040351
     96 H41         1.4430   -0.7920    3.8360 hc        1 MOL      0.074437
     97 H42         1.1960   -2.4570    4.5570 hc        1 MOL      0.074437
     98 H43         2.0820   -1.1450    5.3940 hc        1 MOL      0.074437
     99 H44         5.4750    0.2820    4.4110 hc        1 MOL      0.083485
    100 H45         3.7250    0.6110    4.5580 hc        1 MOL      0.083485
    101 H46         4.3810   -0.6940    5.5370 hc        1 MOL      0.083485
    102 N10         4.0610   -2.3550    0.3140 n         1 MOL     -0.580963
    103 C32         4.7910   -2.7640   -0.8990 c3        1 MOL      0.212821
    104 C33         5.8210   -1.6440   -1.3800 c         1 MOL      0.363947
    105 O16         6.3590   -1.8710   -2.4800 o         1 MOL     -0.529780
    106 C34         3.7140   -3.0000   -1.9550 c3        1 MOL     -0.298634
    107 C35         2.4960   -3.8840   -1.4550 c         1 MOL      0.584937
    108 O17         2.7180   -5.0980   -1.1520 o         1 MOL     -0.596664
    109 O18         1.3530   -3.3660   -1.2550 o         1 MOL     -0.596664
    110 H47         3.5080   -1.5190    0.1770 hn        1 MOL      0.456294
    111 H48         5.2880   -3.7130   -0.7020 h1        1 MOL      0.097144
    112 H49         4.2770   -3.4730   -2.7630 hc        1 MOL      0.074631
    113 H50         3.3170   -2.0350   -2.2630 hc        1 MOL      0.074631
    114 N11         6.0080   -0.4650   -0.7670 n         1 MOL     -0.215179
    115 C36         6.7990    0.6870   -1.1880 c3        1 MOL      0.198015
    116 C37         6.6210    1.9890   -0.3180 c         1 MOL      0.319957
    117 O19         6.6340    1.8930    0.9240 o         1 MOL     -0.484498
    118 C38         8.3350    0.3710   -1.2170 c3        1 MOL     -0.366798
    119 C39         9.2520    1.4310   -1.8350 ca        1 MOL      0.223393
    120 C40         9.9130    2.4590   -1.1350 ca        1 MOL     -0.252872
    121 C41         9.3110    1.4410   -3.2350 ca        1 MOL     -0.252872
    122 C42        10.6550    3.4680   -1.8110 ca        1 MOL     -0.043064
    123 C43        10.1370    2.3240   -3.9130 ca        1 MOL     -0.043064
    124 C44        10.8100    3.3820   -3.2100 ca        1 MOL     -0.189731
    125 H51         5.3720   -0.3110    0.0030 hn        1 MOL      0.082423
    126 H52         6.4380    0.9640   -2.1810 h1        1 MOL      0.026848
    127 H53         8.4820   -0.4750   -1.8890 hc        1 MOL      0.133576
    128 H54         8.7330    0.1000   -0.2290 hc        1 MOL      0.133576
    129 H55         9.8920    2.5270   -0.0590 ha        1 MOL      0.141052
    130 H56         8.9270    0.5650   -3.7370 ha        1 MOL      0.141052
    131 H57        11.2180    4.2320   -1.3000 ha        1 MOL      0.097294
    132 H58        10.2090    2.2130   -4.9820 ha        1 MOL      0.097294
    133 H59        11.4340    4.1650   -3.6200 ha        1 MOL      0.117835
    134 N12         6.4410    3.2090   -0.9580 n         1 MOL      0.078041
    135 C45         6.3780    4.4420   -0.2380 c3        1 MOL     -0.157405
    136 C46         5.0300    4.7370    0.4980 c         1 MOL      0.595873
    137 O20         4.8590    5.8830    0.9510 o         1 MOL     -0.566112
    138 C47         6.7050    5.5310   -1.2670 c3        1 MOL      0.017069
    139 C48         6.1850    4.9160   -2.5850 c3        1 MOL     -0.015598
    140 C49         6.3030    3.4020   -2.3920 c3        1 MOL     -0.204295
    141 H60         7.1590    4.4810    0.5150 h1        1 MOL      0.078473
    142 H61         6.3700    6.5440   -1.0360 hc        1 MOL      0.027718
    143 H62         7.7860    5.6150   -1.3760 hc        1 MOL      0.027718
    144 H63         5.1770    5.2580   -2.8150 hc        1 MOL      0.030470
    145 H64         6.7990    5.2010   -3.4300 hc        1 MOL      0.030470
    146 H65         5.4280    2.8350   -2.7050 h1        1 MOL      0.097127
    147 H66         7.2270    3.0450   -2.8590 h1        1 MOL      0.097127
    148 N13         4.0830    3.8040    0.6880 n         1 MOL     -0.347403
    149 C50         2.7900    4.0000    1.3480 c3        1 MOL     -0.152190
    150 C51         2.9230    4.4030    2.8450 c         1 MOL      0.520444
    151 O21         1.9290    4.8340    3.4380 o         1 MOL     -0.514135
    152 C52         1.9090    2.7340    1.1000 c3        1 MOL     -0.129080
    153 C53         2.5410    1.4300    1.3980 c3        1 MOL     -0.036263
    154 C54         1.6530    0.3100    0.7420 c         1 MOL      0.718832
    155 O22         2.1990   -0.4550   -0.1020 o         1 MOL     -0.730028
    156 O23         0.4490    0.1100    1.1160 o         1 MOL     -0.730028
    157 H67         4.3160    2.8740    0.3770 hn        1 MOL      0.166856
    158 H68         2.2700    4.8460    0.9140 h1        1 MOL      0.145512
    159 H69         1.7180    2.7130    0.0280 hc        1 MOL      0.089678
    160 H70         0.9420    2.8160    1.6050 hc        1 MOL      0.089678
    161 H71         2.6290    1.2780    2.4810 hc        1 MOL      0.031539
    162 H72         3.5740    1.3730    1.0560 hc        1 MOL      0.031539
    163 N14         4.1430    4.3200    3.4430 n         1 MOL     -0.238016
    164 C55         4.4620    4.7010    4.8090 c3        1 MOL     -0.090374
    165 H73         5.5000    5.0270    4.8620 h1        1 MOL      0.060979
    166 H74         3.8080    5.5160    5.1210 h1        1 MOL      0.060979
    167 H75         4.3170    3.8460    5.4690 h1        1 MOL      0.060979
    168 H76         4.9570    3.9970    2.9310 hn        1 MOL      0.212063
    169 Ca1        -0.3610   -1.6570   -0.5100 Ca        1 MOL      1.746620
    170 O24        -2.4680   -1.6870    1.0670 oh        1 MOL     -0.841141
    171 H77        -3.4000   -1.5900    0.8640 ho        1 MOL      0.404620
    172 H78        -2.3060   -1.0340    1.7520 ho        1 MOL      0.404620
    173 O25         0.8660   -0.8050   -2.6750 oh        1 MOL     -0.841141
    174 H79         1.3900   -0.1040   -3.0690 ho        1 MOL      0.404620
    175 H80         0.6330   -1.3750   -3.4130 ho        1 MOL      0.404620
@<TRIPOS>BOND
     1    1    2 1   
     2    1    4 1   
     3    1    5 1   
     4    1    6 1   
     5    2    3 2   
     6    2    7 1   
     7    7    8 1   
     8    7   15 1   
     9    8    9 1   
    10    8   11 1   
    11    8   16 1   
    12    9   10 2   
    13    9   19 1   
    14   11   12 1   
    15   11   17 1   
    16   11   18 1   
    17   12   13 1   
    18   12   14 1   
    19   19   20 1   
    20   19   24 1   
    21   20   21 1   
    22   20   23 1   
    23   20   25 1   
    24   21   22 2   
    25   21   29 1   
    26   23   26 1   
    27   23   27 1   
    28   23   28 1   
    29   29   30 1   
    30   29   37 1   
    31   30   31 1   
    32   30   33 1   
    33   30   38 1   
    34   31   32 2   
    35   31   41 1   
    36   33   34 1   
    37   33   39 1   
    38   33   40 1   
    39   34   35 1   
    40   34   36 1   
    41   41   42 1   
    42   41   45 1   
    43   42   43 1   
    44   42   46 1   
    45   42   47 1   
    46   43   44 2   
    47   43   48 1   
    48   48   49 1   
    49   48   56 1   
    50   49   50 1   
    51   49   52 1   
    52   49   57 1   
    53   50   51 2   
    54   50   62 1   
    55   52   53 1   
    56   52   58 1   
    57   52   59 1   
    58   53   54 1   
    59   53   55 2   
    60   54   60 1   
    61   54   61 1   
    62   62   63 1   
    63   62   66 1   
    64   63   64 1   
    65   63   67 1   
    66   63   68 1   
    67   64   65 2   
    68   64   69 1   
    69   69   70 1   
    70   69   76 1   
    71   70   71 1   
    72   70   73 1   
    73   70   77 1   
    74   71   72 2   
    75   71   83 1   
    76   73   74 1   
    77   73   75 1   
    78   73   78 1   
    79   74   80 1   
    80   74   81 1   
    81   74   82 1   
    82   75   79 1   
    83   83   84 1   
    84   83   91 1   
    85   84   85 1   
    86   84   87 1   
    87   84   92 1   
    88   85   86 2   
    89   85  102 1   
    90   87   88 1   
    91   87   89 1   
    92   87   93 1   
    93   88   90 1   
    94   88   94 1   
    95   88   95 1   
    96   89   96 1   
    97   89   97 1   
    98   89   98 1   
    99   90   99 1   
   100   90  100 1   
   101   90  101 1   
   102  102  103 1   
   103  102  110 1   
   104  103  104 1   
   105  103  106 1   
   106  103  111 1   
   107  104  105 2   
   108  104  114 1   
   109  106  107 1   
   110  106  112 1   
   111  106  113 1   
   112  107  108 1   
   113  107  109 1   
   114  114  115 1   
   115  114  125 1   
   116  115  116 1   
   117  115  118 1   
   118  115  126 1   
   119  116  117 2   
   120  116  134 1   
   121  118  119 1   
   122  118  127 1   
   123  118  128 1   
   124  119  120 ar  
   125  119  121 ar  
   126  120  122 ar  
   127  120  129 1   
   128  121  123 ar  
   129  121  130 1   
   130  122  124 ar  
   131  122  131 1   
   132  123  124 ar  
   133  123  132 1   
   134  124  133 1   
   135  134  135 1   
   136  134  140 1   
   137  135  136 1   
   138  135  138 1   
   139  135  141 1   
   140  136  137 2   
   141  136  148 1   
   142  138  139 1   
   143  138  142 1   
   144  138  143 1   
   145  139  140 1   
   146  139  144 1   
   147  139  145 1   
   148  140  146 1   
   149  140  147 1   
   150  148  149 1   
   151  148  157 1   
   152  149  150 1   
   153  149  152 1   
   154  149  158 1   
   155  150  151 2   
   156  150  163 1   
   157  152  153 1   
   158  152  159 1   
   159  152  160 1   
   160  153  154 1   
   161  153  161 1   
   162  153  162 1   
   163  154  155 1   
   164  154  156 1   
   165  163  164 1   
   166  163  168 1   
   167  164  165 1   
   168  164  166 1   
   169  164  167 1   
   170  170  171 1   
   171  170  172 1   
   172  173  174 1   
   173  173  175 1   
@<TRIPOS>SUBSTRUCTURE
     1 MOL         1 TEMP              0 ****  ****    0 ROOT
