@<TRIPOS>MOLECULE
MOL
  195   189     1     0     0
SMALL
resp


@<TRIPOS>ATOM
      1 C1          0.9250   -4.2300   -2.3450 c3        1 MOL     -0.182387
      2 C2         -0.1310   -4.5450   -1.3060 c         1 MOL      0.708634
      3 O1         -1.0910   -3.7690   -1.3040 o         1 MOL     -0.603810
      4 H1          0.6850   -4.7480   -3.2740 hc        1 MOL     -0.000741
      5 H2          0.9510   -3.1550   -2.5250 hc        1 MOL     -0.000741
      6 H3          1.8990   -4.5620   -1.9860 hc        1 MOL     -0.000741
      7 N1         -0.0020   -5.6490   -0.5620 n         1 MOL     -0.472274
      8 C3         -0.7790   -5.8990    0.6220 c3        1 MOL      0.064423
      9 C4         -2.3230   -5.9140    0.3950 c         1 MOL      0.659957
     10 O2         -3.0180   -5.6580    1.3500 o         1 MOL     -0.466719
     11 C5         -0.3290   -5.1010    1.8060 c3        1 MOL     -0.709653
     12 C6          1.1790   -4.8160    1.8880 c         1 MOL      0.980289
     13 O3          2.0350   -5.6690    2.2280 o         1 MOL     -0.723775
     14 O4          1.4820   -3.6510    1.6850 o         1 MOL     -0.723775
     15 H4          0.8240   -6.2050   -0.7220 hn        1 MOL      0.259730
     16 H5         -0.4990   -6.9270    0.8440 h1        1 MOL      0.062155
     17 H6         -0.7110   -5.6420    2.6660 hc        1 MOL      0.197001
     18 H7         -0.9160   -4.1970    1.7020 hc        1 MOL      0.197001
     19 N2         -2.8350   -6.2000   -0.8210 n         1 MOL     -0.635265
     20 C7         -4.1640   -5.8160   -1.2520 c3        1 MOL      0.054332
     21 C8         -5.2680   -6.5310   -0.4490 c         1 MOL      0.578648
     22 O5         -5.3030   -7.7720   -0.4220 o         1 MOL     -0.605449
     23 C9         -4.4380   -6.0580   -2.7680 c3        1 MOL      0.115012
     24 C10        -3.4090   -5.3270   -3.6380 c3        1 MOL      0.220975
     25 C11        -5.8990   -5.7900   -3.1340 c3        1 MOL     -0.264219
     26 C12        -3.3700   -5.8430   -5.0720 c3        1 MOL     -0.301170
     27 H8         -2.1670   -6.3570   -1.5610 hn        1 MOL      0.248226
     28 H9         -4.2290   -4.7280   -1.1780 h1        1 MOL      0.092027
     29 H10        -4.3070   -7.1230   -2.9900 hc        1 MOL     -0.007018
     30 H11        -2.3860   -5.4690   -3.2770 hc        1 MOL      0.010516
     31 H12        -3.6860   -4.2820   -3.6930 hc        1 MOL      0.010516
     32 H13        -6.5070   -6.6490   -2.8800 hc        1 MOL      0.073778
     33 H14        -6.2870   -4.8340   -2.8060 hc        1 MOL      0.073778
     34 H15        -6.0990   -5.7730   -4.2130 hc        1 MOL      0.073778
     35 H16        -2.7600   -5.0820   -5.5420 hc        1 MOL      0.045392
     36 H17        -2.9420   -6.8410   -5.0930 hc        1 MOL      0.045392
     37 H18        -4.3660   -5.8530   -5.5270 hc        1 MOL      0.045392
     38 N3         -6.3270   -5.8790    0.0870 n         1 MOL     -0.533135
     39 C13        -6.7010   -4.4570    0.1830 c3        1 MOL      0.312623
     40 C14        -6.6300   -3.9120    1.6470 c         1 MOL      0.440885
     41 O6         -6.3180   -4.6760    2.5350 o         1 MOL     -0.535838
     42 C15        -8.0240   -4.2640   -0.5420 c3        1 MOL     -0.377489
     43 C16        -8.1810   -2.8700   -1.2140 c         1 MOL      0.715813
     44 O7         -8.9120   -2.7010   -2.1930 o         1 MOL     -0.692340
     45 O8         -7.4310   -1.9220   -0.8590 o         1 MOL     -0.692340
     46 H19        -6.9810   -6.5260    0.5170 hn        1 MOL      0.295665
     47 H20        -5.9290   -3.9330   -0.3830 h1        1 MOL     -0.023478
     48 H21        -8.8290   -4.4960    0.1670 hc        1 MOL      0.064520
     49 H22        -8.1910   -5.0120   -1.3180 hc        1 MOL      0.064520
     50 N4         -6.7390   -2.5820    1.7650 n         1 MOL     -0.236523
     51 C17        -6.5510   -1.9030    3.0450 c3        1 MOL     -0.210218
     52 C18        -7.3090   -0.5720    3.2300 c         1 MOL      0.775960
     53 O9         -8.2400   -0.5830    4.0100 o         1 MOL     -0.599267
     54 H23        -7.0400   -2.0590    0.9550 hn        1 MOL      0.146115
     55 H24        -5.4890   -1.6750    3.1300 h1        1 MOL      0.087227
     56 H25        -6.5760   -2.6070    3.8870 h1        1 MOL      0.087227
     57 N5         -6.9250    0.4070    2.4120 n         1 MOL     -0.638988
     58 C19        -7.3270    1.8580    2.6910 c3        1 MOL      0.014328
     59 C20        -7.6270    2.7320    1.4750 c         1 MOL      0.549599
     60 O10        -8.2460    3.7840    1.5800 o         1 MOL     -0.579351
     61 C21        -6.2240    2.5030    3.5150 c3        1 MOL     -0.275234
     62 C22        -4.8290    2.3650    2.9300 c         1 MOL      0.745702
     63 O11        -4.4690    2.9250    1.8730 o         1 MOL     -0.714956
     64 O12        -4.0500    1.5900    3.5910 o         1 MOL     -0.714956
     65 H26        -6.2320    0.1650    1.7230 hn        1 MOL      0.333819
     66 H27        -8.2000    1.9370    3.3400 h1        1 MOL      0.109651
     67 H28        -6.1060    2.0330    4.4870 hc        1 MOL      0.070594
     68 H29        -6.4100    3.5800    3.5550 hc        1 MOL      0.070594
     69 N6         -7.1560    2.3260    0.2890 n         1 MOL     -0.287144
     70 C23        -7.3770    2.9960   -0.9660 c3        1 MOL     -0.410564
     71 C24        -6.6620    4.2780   -1.2120 c         1 MOL      0.538734
     72 O13        -6.9760    5.0480   -2.1430 o         1 MOL     -0.580054
     73 H30        -6.5250    1.5380    0.2510 hn        1 MOL      0.321033
     74 H31        -8.4580    3.1480   -1.0450 h1        1 MOL      0.170910
     75 H32        -7.0440    2.2920   -1.7270 h1        1 MOL      0.170910
     76 N7         -5.6300    4.5140   -0.3530 n         1 MOL      0.002663
     77 C25        -4.6610    5.6480   -0.4200 c3        1 MOL     -0.038527
     78 C26        -3.6710    5.5500   -1.6460 c         1 MOL      0.456049
     79 O14        -3.1330    6.5580   -2.2140 o         1 MOL     -0.535173
     80 C27        -5.3540    7.0020   -0.1840 c3        1 MOL     -0.026381
     81 C28        -6.3410    7.1100    1.1010 c3        1 MOL     -0.098639
     82 C29        -6.4190    8.4830    1.7960 c         1 MOL      0.601569
     83 N8         -7.4310    8.6630    2.5840 n         1 MOL     -0.745865
     84 O15        -5.5720    9.3900    1.5780 o         1 MOL     -0.569096
     85 H33        -5.4450    3.8240    0.3710 hn        1 MOL      0.052942
     86 H34        -4.1470    5.4920    0.5300 h1        1 MOL      0.095658
     87 H35        -5.8020    7.2820   -1.1320 hc        1 MOL      0.022743
     88 H36        -4.5850    7.7390    0.0470 hc        1 MOL      0.022743
     89 H37        -6.0370    6.4450    1.9110 hc        1 MOL      0.058088
     90 H38        -7.3500    6.9000    0.7390 hc        1 MOL      0.058088
     91 H39        -8.2270    8.0470    2.5440 hn        1 MOL      0.337248
     92 H40        -7.5830    9.6220    2.8640 hn        1 MOL      0.337248
     93 N9         -3.2620    4.3960   -2.0820 n         1 MOL     -0.285054
     94 C30        -2.1870    4.1190   -3.1220 c3        1 MOL     -0.409622
     95 C31        -1.0720    3.1530   -2.6480 c         1 MOL      0.919736
     96 O16        -0.0260    3.1640   -3.2020 o         1 MOL     -0.633930
     97 C32        -2.9690    3.6630   -4.3620 c3        1 MOL      0.331387
     98 C33        -3.6640    2.3000   -4.2210 c3        1 MOL     -0.392133
     99 C34        -3.9380    4.7200   -4.8910 c3        1 MOL     -0.392133
    100 H41        -3.6510    3.5640   -1.6720 hn        1 MOL      0.205154
    101 H42        -1.7140    5.0810   -3.3370 h1        1 MOL      0.191613
    102 H43        -2.2120    3.3560   -5.0840 hc        1 MOL     -0.032621
    103 H44        -4.3570    2.1570   -5.0400 hc        1 MOL      0.101397
    104 H45        -2.8640    1.5540   -4.1860 hc        1 MOL      0.101397
    105 H46        -4.2170    2.4230   -3.2960 hc        1 MOL      0.101397
    106 H47        -4.7060    4.9680   -4.1640 hc        1 MOL      0.101397
    107 H48        -3.2800    5.5400   -5.1890 hc        1 MOL      0.101397
    108 H49        -4.4510    4.4440   -5.8120 hc        1 MOL      0.101397
    109 N10        -1.2000    2.3290   -1.6140 n         1 MOL     -0.648601
    110 C35        -0.2150    1.4150   -1.2290 c3        1 MOL      0.272136
    111 C36         0.7830    1.9790   -0.2000 c         1 MOL      0.553219
    112 O17         0.3620    2.8650    0.5970 o         1 MOL     -0.525471
    113 C37        -0.8800    0.1320   -0.8490 c3        1 MOL     -0.179004
    114 C38         0.0220   -0.9530   -0.2930 c         1 MOL      0.690158
    115 N11        -0.0840   -1.3510    0.9380 n         1 MOL     -0.715487
    116 O18         0.9880   -1.2800   -0.9730 o         1 MOL     -0.579327
    117 H50        -2.0510    2.3650   -1.0790 hn        1 MOL      0.307561
    118 H51         0.3600    1.1150   -2.1100 h1        1 MOL      0.029295
    119 H52        -1.3470   -0.2580   -1.7660 hc        1 MOL      0.051520
    120 H53        -1.6450    0.2940   -0.0910 hc        1 MOL      0.051520
    121 H54        -0.6880   -0.8620    1.5750 hn        1 MOL      0.365087
    122 H55         0.4720   -2.1460    1.2370 hn        1 MOL      0.365087
    123 N12         2.0640    1.5260   -0.1990 n         1 MOL     -0.549182
    124 C39         3.1170    1.9130    0.7380 c3        1 MOL      0.158311
    125 C40         4.5310    1.9280    0.0540 c         1 MOL      0.573417
    126 O19         4.8440    0.9590   -0.6380 o         1 MOL     -0.506294
    127 C41         3.1560    0.8960    1.8900 c3        1 MOL     -0.261354
    128 C42         4.2800    0.9450    2.9050 ca        1 MOL      0.057476
    129 C43         4.1860    1.7980    4.0180 ca        1 MOL     -0.130161
    130 C44         5.4640    0.1730    2.6480 ca        1 MOL     -0.130161
    131 C45         5.2290    1.7740    4.9670 ca        1 MOL     -0.296650
    132 C46         6.5370    0.1820    3.5650 ca        1 MOL     -0.296650
    133 C47         6.4210    1.0270    4.7350 ca        1 MOL      0.340681
    134 O20         7.3900    0.9760    5.6320 oh        1 MOL     -0.469620
    135 H56         2.2820    0.7410   -0.7830 hn        1 MOL      0.250147
    136 H57         2.9720    2.9260    1.1260 h1        1 MOL      0.074232
    137 H58         3.1240   -0.0880    1.4330 hc        1 MOL      0.110579
    138 H59         2.2280    0.9210    2.4610 hc        1 MOL      0.110579
    139 H60         3.4350    2.5600    4.1700 ha        1 MOL      0.136604
    140 H61         5.5360   -0.5610    1.8670 ha        1 MOL      0.136604
    141 H62         5.1800    2.3220    5.8990 ha        1 MOL      0.140227
    142 H63         7.4060   -0.4570    3.5140 ha        1 MOL      0.140227
    143 H64         7.1110    1.4750    6.4050 ho        1 MOL      0.346537
    144 N13         5.4080    2.9170    0.2260 n         1 MOL     -0.673100
    145 C48         6.7220    2.9950   -0.3900 c3        1 MOL      0.225450
    146 C49         7.8170    2.9610    0.7640 c         1 MOL      0.719369
    147 O21         7.7680    3.9320    1.5210 o         1 MOL     -0.586971
    148 C50         6.7310    4.1460   -1.3660 c3        1 MOL      0.100764
    149 C51         8.1480    4.4870   -1.8740 c3        1 MOL     -0.309843
    150 C52         8.3410    5.9190   -2.3280 c         1 MOL      0.737105
    151 O22         8.0730    6.8410   -1.5370 o         1 MOL     -0.684285
    152 O23         8.7620    6.1540   -3.4840 o         1 MOL     -0.684285
    153 H65         5.1190    3.6620    0.8420 hn        1 MOL      0.341906
    154 H66         6.9330    2.0860   -0.9640 h1        1 MOL     -0.012338
    155 H67         6.3490    5.0620   -0.9220 hc        1 MOL      0.008129
    156 H68         6.0870    3.8850   -2.2020 hc        1 MOL      0.008129
    157 H69         8.4250    3.7380   -2.6190 hc        1 MOL      0.061759
    158 H70         8.8800    4.4710   -1.0660 hc        1 MOL      0.061759
    159 N14         8.6960    2.0190    0.8690 n         1 MOL     -0.731199
    160 C53         8.7120    0.6860    0.2090 c3        1 MOL      0.339402
    161 C54         9.0470    0.6520   -1.2690 c         1 MOL      0.295055
    162 O24        10.0010    1.3010   -1.6570 o         1 MOL     -0.507545
    163 C55         9.6800   -0.2160    0.9180 c3        1 MOL      0.128374
    164 C56         9.7880   -1.7030    0.4700 c3        1 MOL     -0.215602
    165 C57         8.4400   -2.4240    0.7430 c         1 MOL      0.319539
    166 O25         7.4750   -2.1490    0.0350 o         1 MOL     -0.543743
    167 O26         8.3110   -3.1660    1.7390 o         1 MOL     -0.543743
    168 H71         9.5860    2.1850    1.3060 hn        1 MOL      0.333960
    169 H72         7.6840    0.3400    0.1500 h1        1 MOL      0.112503
    170 H73         9.6300   -0.1300    2.0110 hc        1 MOL     -0.003523
    171 H74        10.6250    0.2880    0.7670 hc        1 MOL     -0.003523
    172 H75        10.6180   -2.2170    0.9530 hc        1 MOL      0.056135
    173 H76        10.2620   -1.6300   -0.5110 hc        1 MOL      0.056135
    174 N15         8.3620   -0.1360   -2.1600 n         1 MOL     -0.103754
    175 C58         8.6520   -0.1750   -3.6170 c3        1 MOL     -0.088243
    176 H77         8.6840   -1.2110   -3.9530 h1        1 MOL      0.056268
    177 H78         7.8700    0.3580   -4.1580 h1        1 MOL      0.056268
    178 H79         9.6140    0.2990   -3.8090 h1        1 MOL      0.056268
    179 H80         7.5720   -0.7160   -1.8810 hn        1 MOL     -0.004706
    180 Ca1         5.5290   -3.5980   -0.8010 Ca        1 MOL      1.659172
    181 O27         3.2070   -2.3400   -0.1510 oh        1 MOL     -0.894471
    182 H81         2.5370   -1.9650   -0.7150 ho        1 MOL      0.421616
    183 H82         2.7350   -2.6070    0.6370 ho        1 MOL      0.421616
    184 O28         5.2240   -1.1460   -2.2090 oh        1 MOL     -0.894471
    185 H83         5.1770   -0.3020   -1.7480 ho        1 MOL      0.421616
    186 H84         4.5610   -1.0830   -2.8900 ho        1 MOL      0.421616
    187 O29         6.9070   -5.7510    0.0370 oh        1 MOL     -0.894471
    188 H85         7.5030   -5.6120    0.7640 ho        1 MOL      0.421616
    189 H86         7.3360   -6.4050   -0.5130 ho        1 MOL      0.421616
    190 O30         3.9860   -5.3980    0.4840 oh        1 MOL     -0.894471
    191 H87         3.3100   -5.3940    1.1530 ho        1 MOL      0.421616
    192 H88         4.2900   -6.3040    0.4520 ho        1 MOL      0.421616
    193 O31         5.6540   -3.2800    1.8080 oh        1 MOL     -0.894471
    194 H89         6.5960   -3.1710    1.9650 ho        1 MOL      0.421616
    195 H90         5.2430   -3.1520    2.6670 ho        1 MOL      0.421616
@<TRIPOS>BOND
     1    1    2 1   
     2    1    4 1   
     3    1    5 1   
     4    1    6 1   
     5    2    3 2   
     6    2    7 1   
     7    7    8 1   
     8    7   15 1   
     9    8    9 1   
    10    8   11 1   
    11    8   16 1   
    12    9   10 2   
    13    9   19 1   
    14   11   12 1   
    15   11   17 1   
    16   11   18 1   
    17   12   13 1   
    18   12   14 1   
    19   19   20 1   
    20   19   27 1   
    21   20   21 1   
    22   20   23 1   
    23   20   28 1   
    24   21   22 2   
    25   21   38 1   
    26   23   24 1   
    27   23   25 1   
    28   23   29 1   
    29   24   26 1   
    30   24   30 1   
    31   24   31 1   
    32   25   32 1   
    33   25   33 1   
    34   25   34 1   
    35   26   35 1   
    36   26   36 1   
    37   26   37 1   
    38   38   39 1   
    39   38   46 1   
    40   39   40 1   
    41   39   42 1   
    42   39   47 1   
    43   40   41 2   
    44   40   50 1   
    45   42   43 1   
    46   42   48 1   
    47   42   49 1   
    48   43   44 1   
    49   43   45 1   
    50   50   51 1   
    51   50   54 1   
    52   51   52 1   
    53   51   55 1   
    54   51   56 1   
    55   52   53 2   
    56   52   57 1   
    57   57   58 1   
    58   57   65 1   
    59   58   59 1   
    60   58   61 1   
    61   58   66 1   
    62   59   60 2   
    63   59   69 1   
    64   61   62 1   
    65   61   67 1   
    66   61   68 1   
    67   62   63 1   
    68   62   64 1   
    69   69   70 1   
    70   69   73 1   
    71   70   71 1   
    72   70   74 1   
    73   70   75 1   
    74   71   72 2   
    75   71   76 1   
    76   76   77 1   
    77   76   85 1   
    78   77   78 1   
    79   77   80 1   
    80   77   86 1   
    81   78   79 2   
    82   78   93 1   
    83   80   81 1   
    84   80   87 1   
    85   80   88 1   
    86   81   82 1   
    87   81   89 1   
    88   81   90 1   
    89   82   83 1   
    90   82   84 2   
    91   83   91 1   
    92   83   92 1   
    93   93   94 1   
    94   93  100 1   
    95   94   95 1   
    96   94   97 1   
    97   94  101 1   
    98   95   96 2   
    99   95  109 1   
   100   97   98 1   
   101   97   99 1   
   102   97  102 1   
   103   98  103 1   
   104   98  104 1   
   105   98  105 1   
   106   99  106 1   
   107   99  107 1   
   108   99  108 1   
   109  109  110 1   
   110  109  117 1   
   111  110  111 1   
   112  110  113 1   
   113  110  118 1   
   114  111  112 2   
   115  111  123 1   
   116  113  114 1   
   117  113  119 1   
   118  113  120 1   
   119  114  115 1   
   120  114  116 2   
   121  115  121 1   
   122  115  122 1   
   123  123  124 1   
   124  123  135 1   
   125  124  125 1   
   126  124  127 1   
   127  124  136 1   
   128  125  126 2   
   129  125  144 1   
   130  127  128 1   
   131  127  137 1   
   132  127  138 1   
   133  128  129 ar  
   134  128  130 ar  
   135  129  131 ar  
   136  129  139 1   
   137  130  132 ar  
   138  130  140 1   
   139  131  133 ar  
   140  131  141 1   
   141  132  133 ar  
   142  132  142 1   
   143  133  134 1   
   144  134  143 1   
   145  144  145 1   
   146  144  153 1   
   147  145  146 1   
   148  145  148 1   
   149  145  154 1   
   150  146  147 2   
   151  146  159 1   
   152  148  149 1   
   153  148  155 1   
   154  148  156 1   
   155  149  150 1   
   156  149  157 1   
   157  149  158 1   
   158  150  151 1   
   159  150  152 1   
   160  159  160 1   
   161  159  168 1   
   162  160  161 1   
   163  160  163 1   
   164  160  169 1   
   165  161  162 2   
   166  161  174 1   
   167  163  164 1   
   168  163  170 1   
   169  163  171 1   
   170  164  165 1   
   171  164  172 1   
   172  164  173 1   
   173  165  166 1   
   174  165  167 1   
   175  174  175 1   
   176  174  179 1   
   177  175  176 1   
   178  175  177 1   
   179  175  178 1   
   180  181  182 1   
   181  181  183 1   
   182  184  185 1   
   183  184  186 1   
   184  187  188 1   
   185  187  189 1   
   186  190  191 1   
   187  190  192 1   
   188  193  194 1   
   189  193  195 1   
@<TRIPOS>SUBSTRUCTURE
     1 MOL         1 TEMP              0 ****  ****    0 ROOT
