@<TRIPOS>MOLECULE
MOL
  192   187     1     0     0
SMALL
resp


@<TRIPOS>ATOM
      1 C1          9.7290    0.6020    1.1820 c3        1 MOL     -0.359915
      2 C2          8.4900    0.1410    0.3860 c         1 MOL      0.673263
      3 O1          7.3750    0.4060    0.8970 o         1 MOL     -0.628082
      4 H1         10.1420    1.5000    0.7210 hc        1 MOL      0.093474
      5 H2          9.4410    0.8210    2.2100 hc        1 MOL      0.093474
      6 H3         10.4800   -0.1870    1.1740 hc        1 MOL      0.093474
      7 N1          8.6250   -0.4920   -0.8200 n         1 MOL     -0.508958
      8 C3          7.4770   -0.8330   -1.7200 c3        1 MOL     -0.031977
      9 C4          6.6650   -2.0480   -1.1500 c         1 MOL      0.493215
     10 O2          6.0190   -2.8040   -1.8800 o         1 MOL     -0.417106
     11 C5          7.8220   -0.9680   -3.1810 c3        1 MOL     -0.209620
     12 C6          9.0060   -1.9020   -3.5060 c         1 MOL      0.720698
     13 O3          9.4420   -2.7680   -2.7030 o         1 MOL     -0.640284
     14 O4          9.5920   -1.7470   -4.5980 o         1 MOL     -0.640284
     15 H4          9.5410   -0.8680   -1.0210 hn        1 MOL      0.297814
     16 H5          6.7500   -0.0240   -1.6490 h1        1 MOL      0.159212
     17 H6          8.0110    0.0290   -3.5760 hc        1 MOL      0.082193
     18 H7          6.9880   -1.3180   -3.8000 hc        1 MOL      0.082193
     19 N2          6.5450   -2.1910    0.2190 n         1 MOL     -0.629319
     20 C7          6.0610   -3.4420    0.8790 c3        1 MOL      0.210686
     21 C8          4.6130   -3.8150    0.5140 c         1 MOL      0.364318
     22 O5          4.3600   -4.8990    0.1240 o         1 MOL     -0.534832
     23 C9          6.2910   -3.4570    2.4330 c3        1 MOL     -0.123818
     24 C10         7.7270   -3.5150    2.7390 c3        1 MOL      0.244499
     25 C11         8.0070   -3.6790    4.2260 c3        1 MOL     -0.139195
     26 C12         9.5780   -3.6380    4.4640 c3        1 MOL      0.051626
     27 N3          9.8730   -3.3280    5.8510 n4        1 MOL     -0.092441
     28 H8          6.8730   -1.3980    0.7600 hn        1 MOL      0.322872
     29 H9          6.6260   -4.3080    0.5040 h1        1 MOL      0.089470
     30 H10         5.7630   -4.3100    2.8530 hc        1 MOL      0.023100
     31 H11         5.8990   -2.5450    2.8890 hc        1 MOL      0.023100
     32 H12         8.1690   -2.5410    2.5220 hc        1 MOL     -0.050333
     33 H13         8.2380   -4.3040    2.1840 hc        1 MOL     -0.050333
     34 H14         7.6410   -4.6710    4.4690 hc        1 MOL      0.051368
     35 H15         7.5550   -2.8770    4.8060 hc        1 MOL      0.051368
     36 H16        10.0600   -2.8220    3.9210 hx        1 MOL      0.064221
     37 H17        10.0130   -4.5990    4.1940 hx        1 MOL      0.064221
     38 H18        10.8790   -3.2980    5.8900 hn        1 MOL      0.205345
     39 H19         9.3280   -2.5630    6.2260 hn        1 MOL      0.205345
     40 H20         9.5480   -4.1190    6.4010 hn        1 MOL      0.205345
     41 N4          3.7090   -2.9010    0.4450 n         1 MOL     -0.198533
     42 C13         3.7630   -1.4820    0.9430 c3        1 MOL      0.014586
     43 C14         3.8850   -0.3650   -0.1850 c         1 MOL      0.102179
     44 O6          3.7360   -0.5770   -1.3470 o         1 MOL     -0.351290
     45 C15         2.4510   -1.2570    1.8660 c3        1 MOL     -0.378752
     46 C16         1.1830   -1.6290    1.0880 c         1 MOL      0.647891
     47 O7          0.8930   -0.9960    0.0980 o         1 MOL     -0.665029
     48 O8          0.5340   -2.6180    1.3790 o         1 MOL     -0.665029
     49 H21         2.7950   -3.2370    0.1570 hn        1 MOL      0.315922
     50 H22         4.5910   -1.2480    1.6150 h1        1 MOL      0.102978
     51 H23         2.3480   -0.2340    2.2200 hc        1 MOL      0.085873
     52 H24         2.5060   -1.9980    2.6680 hc        1 MOL      0.085873
     53 N5          4.1480    0.8250    0.3560 n         1 MOL     -0.043573
     54 C17         4.2240    2.0860   -0.4060 c3        1 MOL     -0.126785
     55 C18         2.9010    2.5530   -1.0030 c         1 MOL      0.669912
     56 O9          1.8560    1.9280   -0.9290 o         1 MOL     -0.630785
     57 H25         4.3740    0.9500    1.3330 hn        1 MOL      0.230058
     58 H26         4.9580    2.1340   -1.2050 h1        1 MOL      0.058148
     59 H27         4.5070    2.7960    0.3620 h1        1 MOL      0.058148
     60 N6          2.9690    3.6330   -1.7610 n         1 MOL     -0.435404
     61 C19         1.8420    4.3780   -2.3400 c3        1 MOL      0.148069
     62 C20         2.0460    5.8720   -2.0480 c         1 MOL      0.589922
     63 O10         3.0990    6.3460   -1.7110 o         1 MOL     -0.562680
     64 C21         1.6700    4.1660   -3.8640 c3        1 MOL     -0.248453
     65 C22         1.4010    2.6670   -4.0950 c         1 MOL      0.662670
     66 O11         2.1370    2.0150   -4.9300 o         1 MOL     -0.660786
     67 O12         0.3420    2.1860   -3.6400 o         1 MOL     -0.660786
     68 H28         3.8490    4.1210   -1.8370 hn        1 MOL      0.259357
     69 H29         0.9270    4.0640   -1.8420 h1        1 MOL      0.088887
     70 H30         2.5640    4.4070   -4.4510 hc        1 MOL      0.059264
     71 H31         0.8620    4.7750   -4.2660 hc        1 MOL      0.059264
     72 N7          1.0750    6.8000   -2.1530 n         1 MOL     -0.545879
     73 C23        -0.2760    6.5710   -2.5380 c3        1 MOL      0.039078
     74 C24        -1.2220    6.3740   -1.3290 c         1 MOL      0.650492
     75 O13        -1.0040    6.8200   -0.2140 o         1 MOL     -0.523563
     76 H32         1.3590    7.7670   -2.2240 hn        1 MOL      0.345990
     77 H33        -0.3900    5.6500   -3.1080 h1        1 MOL      0.038670
     78 H34        -0.6800    7.4130   -3.0990 h1        1 MOL      0.038670
     79 N8         -2.3260    5.6550   -1.5740 n         1 MOL     -0.674272
     80 C25        -3.0180    4.8650   -0.5960 c3        1 MOL      0.070994
     81 C26        -1.9250    3.9540    0.0920 c         1 MOL      0.852399
     82 O14        -1.1760    3.2430   -0.5510 o         1 MOL     -0.696115
     83 C27        -4.0800    4.0990   -1.2320 c3        1 MOL      0.271061
     84 C28        -4.9670    3.3270   -0.3340 c3        1 MOL     -0.400311
     85 O15        -3.5320    3.1540   -2.1370 oh        1 MOL     -0.674759
     86 H35        -2.5130    5.2480   -2.4750 hn        1 MOL      0.349199
     87 H36        -3.4860    5.4970    0.1700 h1        1 MOL      0.063775
     88 H37        -4.7480    4.7620   -1.7870 h1        1 MOL      0.038738
     89 H38        -4.1680    2.7100   -2.7060 ho        1 MOL      0.444549
     90 H39        -4.3720    2.5950    0.2250 hc        1 MOL      0.100904
     91 H40        -5.4660    3.9180    0.4270 hc        1 MOL      0.100904
     92 H41        -5.7450    2.8690   -0.9440 hc        1 MOL      0.100904
     93 N9         -1.8110    4.0750    1.4180 n         1 MOL     -0.695150
     94 C29        -0.8040    3.3300    2.3130 c3        1 MOL      0.217645
     95 C30        -1.1340    1.8170    2.2830 c         1 MOL      0.225438
     96 O16        -0.6560    1.0450    1.4570 o         1 MOL     -0.509786
     97 C31         0.6770    3.7310    2.0040 c3        1 MOL      0.254831
     98 C32         0.9550    5.2380    2.1640 c3        1 MOL     -0.003232
     99 C33         1.6480    2.9550    2.9150 c3        1 MOL     -0.627672
    100 C34         2.4570    5.6030    1.9700 c3        1 MOL     -0.106949
    101 H42        -2.3460    4.7770    1.9070 hn        1 MOL      0.315180
    102 H43        -1.0410    3.6140    3.3380 h1        1 MOL      0.021511
    103 H44         0.9850    3.5410    0.9720 hc        1 MOL     -0.019600
    104 H45         0.6720    5.3950    3.2040 hc        1 MOL     -0.009928
    105 H46         0.3130    5.8840    1.5690 hc        1 MOL     -0.009928
    106 H47         2.6350    3.1650    2.5090 hc        1 MOL      0.156862
    107 H48         1.5550    3.1830    3.9800 hc        1 MOL      0.156862
    108 H49         1.4940    1.9070    2.6720 hc        1 MOL      0.156862
    109 H50         3.0420    5.1730    2.7810 hc        1 MOL      0.030451
    110 H51         2.7900    5.3310    0.9680 hc        1 MOL      0.030451
    111 H52         2.6390    6.6700    2.0280 hc        1 MOL      0.030451
    112 N10        -2.0230    1.3700    3.1710 n         1 MOL     -0.115515
    113 C35        -2.4890   -0.1050    3.2600 c3        1 MOL     -0.454023
    114 C36        -3.9800   -0.3260    3.2090 c         1 MOL      0.578245
    115 O17        -4.4470   -1.4820    3.4430 o         1 MOL     -0.573038
    116 C37        -1.6280   -0.8940    4.3300 c3        1 MOL      0.319105
    117 C38        -2.0490   -0.4490    5.7940 c3        1 MOL     -0.212574
    118 O18        -0.2260   -0.6630    4.1380 oh        1 MOL     -0.521668
    119 H53        -2.3650    2.0350    3.8530 hn        1 MOL      0.231784
    120 H54        -2.2880   -0.5130    2.2700 h1        1 MOL      0.258688
    121 H55        -1.7560   -1.9750    4.2380 h1        1 MOL      0.057295
    122 H56        -0.0580   -0.8050    3.2050 ho        1 MOL      0.346850
    123 H57        -1.2610   -0.7150    6.4950 hc        1 MOL      0.058791
    124 H58        -2.1040    0.6460    5.7550 hc        1 MOL      0.058791
    125 H59        -3.0140   -0.8050    6.1560 hc        1 MOL      0.058791
    126 N11        -4.7020    0.7020    2.9620 n         1 MOL     -0.076842
    127 C39        -6.2060    0.6330    2.8860 c3        1 MOL     -0.426212
    128 C40        -6.6320    0.0210    1.5930 c         1 MOL      0.665206
    129 O19        -7.0370    0.6190    0.6130 o         1 MOL     -0.533174
    130 C41        -6.8860    1.9380    3.1440 c3        1 MOL      0.457827
    131 C42        -7.0060    2.3670    4.6710 c3        1 MOL     -0.405205
    132 O20        -6.3920    3.0830    2.5290 oh        1 MOL     -0.623177
    133 H60        -4.2830    1.6190    2.8740 hn        1 MOL      0.215285
    134 H61        -6.5760    0.0270    3.7100 h1        1 MOL      0.138540
    135 H62        -7.9060    1.9670    2.7700 h1        1 MOL      0.010056
    136 H63        -6.9730    3.3910    1.8280 ho        1 MOL      0.406053
    137 H64        -7.6660    3.2290    4.8030 hc        1 MOL      0.105400
    138 H65        -7.5430    1.5820    5.2160 hc        1 MOL      0.105400
    139 H66        -6.0300    2.6250    5.0810 hc        1 MOL      0.105400
    140 N12        -6.6470   -1.3450    1.6370 n         1 MOL     -0.555037
    141 C43        -6.6110   -2.3150    0.5000 c3        1 MOL      0.026519
    142 C44        -5.3240   -2.1920   -0.3810 c         1 MOL      0.587735
    143 O21        -4.9560   -1.1240   -0.7950 o         1 MOL     -0.504470
    144 C45        -7.9240   -2.3900   -0.2790 c3        1 MOL     -0.205389
    145 C46        -9.0930   -2.9680    0.5000 c3        1 MOL      0.100321
    146 C47       -10.4410   -2.9740   -0.2930 c3        1 MOL     -0.309752
    147 C48       -10.5180   -4.1660   -1.2410 c3        1 MOL      0.064558
    148 N13       -11.8600   -4.2340   -1.9030 n4        1 MOL     -0.058866
    149 H67        -6.2660   -1.7950    2.4530 hn        1 MOL      0.319137
    150 H68        -6.5630   -3.3160    0.9470 h1        1 MOL      0.065688
    151 H69        -7.7170   -2.9510   -1.1870 hc        1 MOL      0.107741
    152 H70        -8.2380   -1.4310   -0.6950 hc        1 MOL      0.107741
    153 H71        -9.2580   -2.3480    1.3840 hc        1 MOL      0.026890
    154 H72        -8.8140   -3.9360    0.9130 hc        1 MOL      0.026890
    155 H73       -10.4290   -2.0770   -0.9030 hc        1 MOL      0.114634
    156 H74       -11.3020   -2.9170    0.3660 hc        1 MOL      0.114634
    157 H75       -10.4080   -5.1120   -0.7160 hx        1 MOL      0.058365
    158 H76        -9.6890   -4.1690   -1.9470 hx        1 MOL      0.058365
    159 H77       -12.5590   -4.6060   -1.2650 hn        1 MOL      0.182192
    160 H78       -12.2960   -3.3590   -2.1640 hn        1 MOL      0.182192
    161 H79       -11.9500   -4.9440   -2.6230 hn        1 MOL      0.182192
    162 N14        -4.7020   -3.3360   -0.7590 n         1 MOL     -0.594577
    163 C49        -3.5800   -3.3410   -1.6790 c3        1 MOL      0.465085
    164 C50        -2.3110   -2.7810   -1.0020 c         1 MOL      0.366331
    165 O22        -1.8270   -1.7090   -1.4120 o         1 MOL     -0.659366
    166 C51        -3.3520   -4.6450   -2.3110 c3        1 MOL     -0.175871
    167 C52        -4.3860   -4.9740   -3.3860 c3        1 MOL     -0.174547
    168 C53        -4.1530   -6.2910   -4.1600 c         1 MOL      0.722265
    169 O23        -4.2680   -7.4020   -3.6140 o         1 MOL     -0.649493
    170 O24        -3.9400   -6.2390   -5.4100 o         1 MOL     -0.649493
    171 H80        -5.2500   -4.1690   -0.6320 hn        1 MOL      0.308256
    172 H81        -3.7630   -2.6970   -2.5360 h1        1 MOL     -0.001657
    173 H82        -3.2350   -5.4110   -1.5410 hc        1 MOL      0.073620
    174 H83        -2.4150   -4.6390   -2.8600 hc        1 MOL      0.073620
    175 H84        -4.5610   -4.1340   -4.0450 hc        1 MOL      0.000912
    176 H85        -5.3670   -5.0820   -2.9070 hc        1 MOL      0.000912
    177 N15        -1.7610   -3.4200    0.0350 n         1 MOL     -0.368929
    178 C54        -2.2580   -4.5770    0.7920 c3        1 MOL      0.009959
    179 H86        -3.2810   -4.7970    0.4870 h1        1 MOL      0.026096
    180 H87        -1.6260   -5.4420    0.5930 h1        1 MOL      0.026096
    181 H88        -2.2390   -4.3490    1.8580 h1        1 MOL      0.026096
    182 H89        -0.9620   -2.9950    0.4850 hn        1 MOL      0.382746
    183 Ca1        -0.4160    0.6260   -1.2780 Ca        1 MOL      1.842572
    184 O25        -1.8100    0.3340   -3.6550 oh        1 MOL     -0.862713
    185 H90        -1.2580    0.6720   -4.3630 ho        1 MOL      0.413818
    186 H91        -2.1370   -0.5060   -3.9910 ho        1 MOL      0.413818
    187 O26        -2.9820    0.6190   -0.1970 oh        1 MOL     -0.862713
    188 H92        -3.5890    1.2850   -0.5230 ho        1 MOL      0.413818
    189 H93        -3.4780   -0.1980   -0.2370 ho        1 MOL      0.413818
    190 O27         1.2370   -0.6050   -2.8260 oh        1 MOL     -0.862713
    191 H94         1.2760   -1.1280   -3.6280 ho        1 MOL      0.413818
    192 H95         2.0920   -0.7190   -2.4220 ho        1 MOL      0.413818
@<TRIPOS>BOND
     1    1    2 1   
     2    1    4 1   
     3    1    5 1   
     4    1    6 1   
     5    2    3 2   
     6    2    7 1   
     7    7    8 1   
     8    7   15 1   
     9    8    9 1   
    10    8   11 1   
    11    8   16 1   
    12    9   10 2   
    13    9   19 1   
    14   11   12 1   
    15   11   17 1   
    16   11   18 1   
    17   12   13 1   
    18   12   14 1   
    19   19   20 1   
    20   19   28 1   
    21   20   21 1   
    22   20   23 1   
    23   20   29 1   
    24   21   22 2   
    25   21   41 1   
    26   23   24 1   
    27   23   30 1   
    28   23   31 1   
    29   24   25 1   
    30   24   32 1   
    31   24   33 1   
    32   25   26 1   
    33   25   34 1   
    34   25   35 1   
    35   26   27 1   
    36   26   36 1   
    37   26   37 1   
    38   27   38 1   
    39   27   39 1   
    40   27   40 1   
    41   41   42 1   
    42   41   49 1   
    43   42   43 1   
    44   42   45 1   
    45   42   50 1   
    46   43   44 2   
    47   43   53 1   
    48   45   46 1   
    49   45   51 1   
    50   45   52 1   
    51   46   47 1   
    52   46   48 1   
    53   53   54 1   
    54   53   57 1   
    55   54   55 1   
    56   54   58 1   
    57   54   59 1   
    58   55   56 2   
    59   55   60 1   
    60   60   61 1   
    61   60   68 1   
    62   61   62 1   
    63   61   64 1   
    64   61   69 1   
    65   62   63 2   
    66   62   72 1   
    67   64   65 1   
    68   64   70 1   
    69   64   71 1   
    70   65   66 1   
    71   65   67 1   
    72   72   73 1   
    73   72   76 1   
    74   73   74 1   
    75   73   77 1   
    76   73   78 1   
    77   74   75 2   
    78   74   79 1   
    79   79   80 1   
    80   79   86 1   
    81   80   81 1   
    82   80   83 1   
    83   80   87 1   
    84   81   82 2   
    85   81   93 1   
    86   83   84 1   
    87   83   85 1   
    88   83   88 1   
    89   84   90 1   
    90   84   91 1   
    91   84   92 1   
    92   85   89 1   
    93   93   94 1   
    94   93  101 1   
    95   94   95 1   
    96   94   97 1   
    97   94  102 1   
    98   95   96 2   
    99   95  112 1   
   100   97   98 1   
   101   97   99 1   
   102   97  103 1   
   103   98  100 1   
   104   98  104 1   
   105   98  105 1   
   106   99  106 1   
   107   99  107 1   
   108   99  108 1   
   109  100  109 1   
   110  100  110 1   
   111  100  111 1   
   112  112  113 1   
   113  112  119 1   
   114  113  114 1   
   115  113  116 1   
   116  113  120 1   
   117  114  115 2   
   118  114  126 1   
   119  116  117 1   
   120  116  118 1   
   121  116  121 1   
   122  117  123 1   
   123  117  124 1   
   124  117  125 1   
   125  118  122 1   
   126  126  127 1   
   127  126  133 1   
   128  127  128 1   
   129  127  130 1   
   130  127  134 1   
   131  128  129 2   
   132  128  140 1   
   133  130  131 1   
   134  130  132 1   
   135  130  135 1   
   136  131  137 1   
   137  131  138 1   
   138  131  139 1   
   139  132  136 1   
   140  140  141 1   
   141  140  149 1   
   142  141  142 1   
   143  141  144 1   
   144  141  150 1   
   145  142  143 2   
   146  142  162 1   
   147  144  145 1   
   148  144  151 1   
   149  144  152 1   
   150  145  146 1   
   151  145  153 1   
   152  145  154 1   
   153  146  147 1   
   154  146  155 1   
   155  146  156 1   
   156  147  148 1   
   157  147  157 1   
   158  147  158 1   
   159  148  159 1   
   160  148  160 1   
   161  148  161 1   
   162  162  163 1   
   163  162  171 1   
   164  163  164 1   
   165  163  166 1   
   166  163  172 1   
   167  164  165 2   
   168  164  177 1   
   169  166  167 1   
   170  166  173 1   
   171  166  174 1   
   172  167  168 1   
   173  167  175 1   
   174  167  176 1   
   175  168  169 1   
   176  168  170 1   
   177  177  178 1   
   178  177  182 1   
   179  178  179 1   
   180  178  180 1   
   181  178  181 1   
   182  184  185 1   
   183  184  186 1   
   184  187  188 1   
   185  187  189 1   
   186  190  191 1   
   187  190  192 1   
@<TRIPOS>SUBSTRUCTURE
     1 MOL         1 TEMP              0 ****  ****    0 ROOT
