@<TRIPOS>MOLECULE
MOL
  181   177     1     0     0
SMALL
resp


@<TRIPOS>ATOM
      1 C1          1.3340    7.0520   -1.6180 c3        1 MOL     -0.391581
      2 C2          2.7210    6.4650   -1.3060 c         1 MOL      0.782585
      3 O1          3.4270    6.8700   -0.4300 o         1 MOL     -0.625550
      4 H1          0.5630    6.4030   -1.2010 hc        1 MOL      0.087943
      5 H2          1.2510    8.0440   -1.1750 hc        1 MOL      0.087943
      6 H3          1.2030    7.1240   -2.6980 hc        1 MOL      0.087943
      7 N1          3.1300    5.4660   -1.9960 n         1 MOL     -0.603665
      8 C3          4.4680    4.9550   -1.7030 c3        1 MOL      0.158392
      9 C4          4.5210    3.9290   -0.5440 c         1 MOL      0.632147
     10 O2          3.7430    3.0300   -0.5860 o         1 MOL     -0.629455
     11 C5          4.8910    4.1950   -3.0280 c3        1 MOL     -0.318604
     12 C6          6.2560    3.5730   -2.8920 c         1 MOL      0.766621
     13 O3          7.2890    4.2850   -2.9220 o         1 MOL     -0.755095
     14 O4          6.3350    2.3360   -2.7720 o         1 MOL     -0.755095
     15 H4          2.6260    4.9660   -2.6990 hn        1 MOL      0.313251
     16 H5          5.1850    5.7550   -1.5130 h1        1 MOL      0.049883
     17 H6          4.9000    4.9060   -3.8530 hc        1 MOL      0.051925
     18 H7          4.1880    3.3940   -3.2780 hc        1 MOL      0.051925
     19 N2          5.5220    4.0380    0.3070 n         1 MOL     -0.509419
     20 C7          5.5520    3.2450    1.5410 c3        1 MOL      0.241277
     21 C8          4.3320    3.5380    2.4510 c         1 MOL      0.499736
     22 O5          3.9110    4.6430    2.6940 o         1 MOL     -0.560736
     23 C9          6.8600    3.4440    2.2540 c3        1 MOL     -0.421230
     24 H8          6.2040    4.7730    0.2480 hn        1 MOL      0.308655
     25 H9          5.4310    2.1950    1.2950 h1        1 MOL      0.153520
     26 H10         7.7290    3.2640    1.6130 hc        1 MOL      0.109961
     27 H11         6.9030    4.4670    2.6020 hc        1 MOL      0.109961
     28 H12         6.9790    2.8480    3.1580 hc        1 MOL      0.109961
     29 N3          3.7600    2.6270    3.2010 n         1 MOL     -0.324808
     30 C10         4.3160    1.3490    3.6020 c3        1 MOL      0.141312
     31 C11         4.2640    0.3830    2.4320 c         1 MOL      0.083728
     32 O6          3.4450    0.4120    1.5170 o         1 MOL     -0.272959
     33 C12         3.7250    0.7790    4.8480 c3        1 MOL     -0.324069
     34 C13         2.1690    0.7350    4.6380 c         1 MOL      0.670878
     35 O7          1.4140    1.4610    5.3580 o         1 MOL     -0.648565
     36 O8          1.7050    0.0200    3.7210 o         1 MOL     -0.648565
     37 H13         2.8380    2.8330    3.5680 hn        1 MOL      0.248776
     38 H14         5.3880    1.5030    3.7470 h1        1 MOL      0.014768
     39 H15         3.8980    1.3410    5.7690 hc        1 MOL      0.080002
     40 H16         4.0980   -0.2320    4.9900 hc        1 MOL      0.080002
     41 N4          5.1800   -0.6140    2.3810 n         1 MOL     -0.300972
     42 C14         5.5530   -1.3450    1.2440 c3        1 MOL     -0.132390
     43 C15         6.6870   -0.7080    0.4130 c         1 MOL      0.636988
     44 O9          7.0820    0.4800    0.5530 o         1 MOL     -0.532328
     45 H17         5.6740   -0.8020    3.2460 hn        1 MOL      0.279252
     46 H18         4.7250   -1.4990    0.5570 h1        1 MOL      0.096946
     47 H19         5.8940   -2.2840    1.7010 h1        1 MOL      0.096946
     48 N5          7.2360   -1.4600   -0.5880 n         1 MOL     -0.574840
     49 C16         6.8730   -2.8900   -0.8630 c3        1 MOL      0.148822
     50 C17         5.7190   -3.2230   -1.8230 c         1 MOL      0.608040
     51 O10         5.4410   -4.3870   -2.2220 o         1 MOL     -0.559013
     52 C18         8.2380   -3.6060   -1.0860 c3        1 MOL     -0.380578
     53 C19         9.4260   -3.1600   -0.2660 c         1 MOL      0.739720
     54 N6         10.4680   -2.6320   -0.9120 n         1 MOL     -0.840616
     55 O11         9.3870   -3.0420    0.9370 o         1 MOL     -0.548394
     56 H20         8.0280   -1.0360   -1.0420 hn        1 MOL      0.349135
     57 H21         6.4510   -3.2630    0.0700 h1        1 MOL      0.050619
     58 H22         8.5560   -3.4290   -2.1120 hc        1 MOL      0.094279
     59 H23         8.1710   -4.6880   -0.9270 hc        1 MOL      0.094279
     60 H24        10.4940   -2.5270   -1.9180 hn        1 MOL      0.374194
     61 H25        11.2830   -2.2510   -0.4400 hn        1 MOL      0.374194
     62 N7          5.0410   -2.1270   -2.2580 n         1 MOL     -0.433667
     63 C20         4.0550   -2.1470   -3.3520 c3        1 MOL     -0.167863
     64 C21         2.7320   -2.8230   -3.0630 c         1 MOL      0.472150
     65 O12         1.7420   -2.6700   -3.7630 o         1 MOL     -0.547037
     66 H26         5.2130   -1.2170   -1.8360 hn        1 MOL      0.324700
     67 H27         4.5090   -2.6230   -4.2120 h1        1 MOL      0.131647
     68 H28         3.7570   -1.1630   -3.7110 h1        1 MOL      0.131647
     69 N8          2.6390   -3.4930   -1.9120 n         1 MOL     -0.065515
     70 C22         1.4690   -4.2670   -1.4050 c3        1 MOL     -0.493294
     71 C23         0.2440   -3.4830   -0.9440 c         1 MOL      0.993648
     72 O13         0.3750   -2.5720   -0.1530 o         1 MOL     -0.655520
     73 C24         1.9560   -5.3750   -0.4750 c3        1 MOL      0.413477
     74 C25         2.5220   -6.4980   -1.3310 c3        1 MOL     -0.478052
     75 O14         2.9000   -4.8920    0.3770 oh        1 MOL     -0.650214
     76 H29         3.4170   -3.5590   -1.2640 hn        1 MOL      0.146352
     77 H30         1.0310   -4.7850   -2.2660 h1        1 MOL      0.137569
     78 H31         1.1870   -5.7790    0.1830 h1        1 MOL      0.035727
     79 H32         3.3630   -5.5880    0.8410 ho        1 MOL      0.435788
     80 H33         3.1970   -7.1080   -0.7310 hc        1 MOL      0.127381
     81 H34         1.7390   -7.0520   -1.8420 hc        1 MOL      0.127381
     82 H35         3.2210   -6.0810   -2.0650 hc        1 MOL      0.127381
     83 N9         -0.9160   -3.9120   -1.4580 n         1 MOL     -0.684223
     84 C26        -2.2350   -3.3010   -1.2290 c3        1 MOL     -0.015385
     85 C27        -2.7240   -3.5890    0.1570 c         1 MOL      0.346495
     86 O15        -2.7620   -4.7630    0.5730 o         1 MOL     -0.516524
     87 C28        -3.3350   -3.6550   -2.3570 c3        1 MOL      0.342230
     88 C29        -4.6190   -2.7860   -2.0560 c3        1 MOL      0.133687
     89 C30        -2.7420   -3.5510   -3.7370 c3        1 MOL     -0.464915
     90 C31        -5.8060   -3.0980   -3.0380 c3        1 MOL     -0.094452
     91 H36        -0.9240   -4.8340   -1.8570 hn        1 MOL      0.331282
     92 H37        -2.0440   -2.2310   -1.2870 h1        1 MOL      0.134321
     93 H38        -3.6070   -4.6900   -2.1330 hc        1 MOL     -0.043435
     94 H39        -4.3760   -1.7330   -2.2010 hc        1 MOL     -0.034553
     95 H40        -5.0360   -3.0630   -1.0860 hc        1 MOL     -0.034553
     96 H41        -2.1310   -2.6570   -3.8410 hc        1 MOL      0.106525
     97 H42        -2.0580   -4.3800   -3.9370 hc        1 MOL      0.106525
     98 H43        -3.5980   -3.6690   -4.4040 hc        1 MOL      0.106525
     99 H44        -5.8400   -4.1420   -3.3460 hc        1 MOL     -0.008946
    100 H45        -6.6800   -2.7470   -2.4750 hc        1 MOL     -0.008946
    101 H46        -5.6420   -2.5070   -3.9470 hc        1 MOL     -0.008946
    102 N10        -3.0990   -2.4840    0.8670 n         1 MOL     -0.267891
    103 C32        -3.7690   -2.4840    2.1970 c3        1 MOL     -0.051212
    104 C33        -5.1660   -1.8810    2.2780 c         1 MOL      0.421073
    105 O16        -5.9130   -2.2510    3.1220 o         1 MOL     -0.507136
    106 C34        -2.8730   -1.9340    3.3810 c3        1 MOL      0.095886
    107 C35        -1.4970   -2.4750    3.2720 c         1 MOL      0.734750
    108 O17        -1.2770   -3.5540    3.9190 o         1 MOL     -0.726246
    109 O18        -0.6070   -1.7270    2.8200 o         1 MOL     -0.726246
    110 H47        -3.1820   -1.6220    0.3470 hn        1 MOL      0.310502
    111 H48        -3.8840   -3.5150    2.5360 h1        1 MOL      0.079879
    112 H49        -3.2730   -2.3080    4.3160 hc        1 MOL     -0.028145
    113 H50        -2.8640   -0.8390    3.3800 hc        1 MOL     -0.028145
    114 N11        -5.4380   -0.9870    1.3010 n         1 MOL     -0.354089
    115 C36        -6.7560   -0.4040    1.1770 c3        1 MOL      0.361651
    116 C37        -6.5850    1.0330    0.5390 c         1 MOL      0.306173
    117 O19        -7.1420    1.3380   -0.5340 o         1 MOL     -0.483175
    118 C38        -7.7390   -1.2840    0.3740 c3        1 MOL     -0.348635
    119 C39        -9.1610   -0.9020    0.5880 ca        1 MOL      0.120323
    120 C40        -9.6900   -0.9990    1.9030 ca        1 MOL     -0.133366
    121 C41        -9.9840   -0.4990   -0.4720 ca        1 MOL     -0.133366
    122 C42       -11.0380   -0.5650    2.1180 ca        1 MOL     -0.176587
    123 C43       -11.3020    0.0110   -0.2590 ca        1 MOL     -0.176587
    124 C44       -11.7940    0.0860    1.0710 ca        1 MOL     -0.084019
    125 H51        -4.6710   -0.7050    0.7050 hn        1 MOL      0.159215
    126 H52        -7.1920   -0.3190    2.1710 h1        1 MOL     -0.005136
    127 H53        -7.5660   -2.3420    0.5850 hc        1 MOL      0.131660
    128 H54        -7.5160   -1.0970   -0.6800 hc        1 MOL      0.131660
    129 H55        -9.0480   -1.4710    2.6410 ha        1 MOL      0.119091
    130 H56        -9.5540   -0.5930   -1.4570 ha        1 MOL      0.119091
    131 H57       -11.5180   -0.5220    3.0850 ha        1 MOL      0.116836
    132 H58       -11.9340    0.3920   -1.0530 ha        1 MOL      0.116836
    133 H59       -12.7690    0.5240    1.1780 ha        1 MOL      0.095841
    134 N12        -5.7630    1.9570    1.1300 n         1 MOL     -0.188173
    135 C45        -5.6530    3.3390    0.6550 c3        1 MOL      0.114298
    136 C46        -5.1490    3.5030   -0.8090 c         1 MOL      0.130587
    137 O20        -5.4470    4.4840   -1.4400 o         1 MOL     -0.472976
    138 C47        -4.6190    4.0310    1.5590 c3        1 MOL      0.104251
    139 C48        -4.5580    3.1520    2.8000 c3        1 MOL     -0.227463
    140 C49        -4.8460    1.7280    2.2310 c3        1 MOL     -0.043579
    141 H60        -6.5560    3.9140    0.8280 h1        1 MOL      0.069801
    142 H61        -3.6150    3.9920    1.1420 hc        1 MOL      0.000033
    143 H62        -4.9220    5.0550    1.7570 hc        1 MOL      0.000033
    144 H63        -3.5190    3.0960    3.1290 hc        1 MOL      0.076435
    145 H64        -5.2140    3.5430    3.5760 hc        1 MOL      0.076435
    146 H65        -3.9410    1.2430    1.8730 h1        1 MOL      0.088339
    147 H66        -5.3060    1.1710    3.0470 h1        1 MOL      0.088339
    148 N13        -4.4770    2.5160   -1.3640 n         1 MOL      0.058079
    149 C50        -3.9830    2.6010   -2.8040 c3        1 MOL     -0.210514
    150 C51        -5.1360    2.6270   -3.7080 c         1 MOL      0.457009
    151 O21        -5.2000    3.4420   -4.6820 o         1 MOL     -0.559034
    152 C52        -3.0460    1.3490   -3.1130 c3        1 MOL      0.167268
    153 C53        -1.8650    1.2650   -2.0390 c3        1 MOL     -0.377259
    154 C54        -2.2280    0.4880   -0.7770 c         1 MOL      0.797884
    155 O22        -1.2940    0.2630    0.0130 o         1 MOL     -0.800482
    156 O23        -3.3730    0.1640   -0.4080 o         1 MOL     -0.800482
    157 H67        -4.4340    1.6420   -0.8590 hn        1 MOL      0.196263
    158 H68        -3.3820    3.4890   -3.0100 h1        1 MOL      0.123812
    159 H69        -2.6300    1.4360   -4.1160 hc        1 MOL     -0.019301
    160 H70        -3.6990    0.4770   -3.0910 hc        1 MOL     -0.019301
    161 H71        -1.5770    2.2730   -1.7200 hc        1 MOL      0.114420
    162 H72        -1.0020    0.7410   -2.4530 hc        1 MOL      0.114420
    163 N14        -6.0930    1.7330   -3.5540 n         1 MOL     -0.108390
    164 C55        -7.2720    1.5920   -4.3820 c3        1 MOL     -0.386737
    165 H73        -7.9420    0.8550   -3.9380 h1        1 MOL      0.129843
    166 H74        -7.7850    2.5520   -4.4510 h1        1 MOL      0.129843
    167 H75        -6.9800    1.2630   -5.3790 h1        1 MOL      0.129843
    168 H76        -6.0910    1.1000   -2.7640 hn        1 MOL      0.230805
    169 Ca1         0.8220   -0.3880    1.2900 Ca        1 MOL      1.657315
    170 O24         2.0630   -0.2370   -1.1470 oh        1 MOL     -0.798122
    171 H77         1.8180   -0.2670   -2.0760 ho        1 MOL      0.393244
    172 H78         2.9860    0.0280   -1.1470 ho        1 MOL      0.393244
    173 O25         1.3380    2.2340    0.8470 oh        1 MOL     -0.798122
    174 H79         2.0890    2.4500    0.3050 ho        1 MOL      0.393244
    175 H80         0.7380    2.9830    0.7580 ho        1 MOL      0.393244
    176 O26        -1.2560    1.2000    2.5490 oh        1 MOL     -0.798122
    177 H81        -1.6390    0.9480    1.7020 ho        1 MOL      0.393244
    178 H82        -1.3870    2.1480    2.5950 ho        1 MOL      0.393244
    179 O27         2.4150   -2.5010    1.9430 oh        1 MOL     -0.798122
    180 H83         2.6060   -3.1290    1.2410 ho        1 MOL      0.393244
    181 H84         2.0500   -3.0390    2.6480 ho        1 MOL      0.393244
@<TRIPOS>BOND
     1    1    2 1   
     2    1    4 1   
     3    1    5 1   
     4    1    6 1   
     5    2    3 2   
     6    2    7 1   
     7    7    8 1   
     8    7   15 1   
     9    8    9 1   
    10    8   11 1   
    11    8   16 1   
    12    9   10 2   
    13    9   19 1   
    14   11   12 1   
    15   11   17 1   
    16   11   18 1   
    17   12   13 1   
    18   12   14 1   
    19   19   20 1   
    20   19   24 1   
    21   20   21 1   
    22   20   23 1   
    23   20   25 1   
    24   21   22 2   
    25   21   29 1   
    26   23   26 1   
    27   23   27 1   
    28   23   28 1   
    29   29   30 1   
    30   29   37 1   
    31   30   31 1   
    32   30   33 1   
    33   30   38 1   
    34   31   32 2   
    35   31   41 1   
    36   33   34 1   
    37   33   39 1   
    38   33   40 1   
    39   34   35 1   
    40   34   36 1   
    41   41   42 1   
    42   41   45 1   
    43   42   43 1   
    44   42   46 1   
    45   42   47 1   
    46   43   44 2   
    47   43   48 1   
    48   48   49 1   
    49   48   56 1   
    50   49   50 1   
    51   49   52 1   
    52   49   57 1   
    53   50   51 2   
    54   50   62 1   
    55   52   53 1   
    56   52   58 1   
    57   52   59 1   
    58   53   54 1   
    59   53   55 2   
    60   54   60 1   
    61   54   61 1   
    62   62   63 1   
    63   62   66 1   
    64   63   64 1   
    65   63   67 1   
    66   63   68 1   
    67   64   65 2   
    68   64   69 1   
    69   69   70 1   
    70   69   76 1   
    71   70   71 1   
    72   70   73 1   
    73   70   77 1   
    74   71   72 2   
    75   71   83 1   
    76   73   74 1   
    77   73   75 1   
    78   73   78 1   
    79   74   80 1   
    80   74   81 1   
    81   74   82 1   
    82   75   79 1   
    83   83   84 1   
    84   83   91 1   
    85   84   85 1   
    86   84   87 1   
    87   84   92 1   
    88   85   86 2   
    89   85  102 1   
    90   87   88 1   
    91   87   89 1   
    92   87   93 1   
    93   88   90 1   
    94   88   94 1   
    95   88   95 1   
    96   89   96 1   
    97   89   97 1   
    98   89   98 1   
    99   90   99 1   
   100   90  100 1   
   101   90  101 1   
   102  102  103 1   
   103  102  110 1   
   104  103  104 1   
   105  103  106 1   
   106  103  111 1   
   107  104  105 2   
   108  104  114 1   
   109  106  107 1   
   110  106  112 1   
   111  106  113 1   
   112  107  108 1   
   113  107  109 1   
   114  114  115 1   
   115  114  125 1   
   116  115  116 1   
   117  115  118 1   
   118  115  126 1   
   119  116  117 2   
   120  116  134 1   
   121  118  119 1   
   122  118  127 1   
   123  118  128 1   
   124  119  120 ar  
   125  119  121 ar  
   126  120  122 ar  
   127  120  129 1   
   128  121  123 ar  
   129  121  130 1   
   130  122  124 ar  
   131  122  131 1   
   132  123  124 ar  
   133  123  132 1   
   134  124  133 1   
   135  134  135 1   
   136  134  140 1   
   137  135  136 1   
   138  135  138 1   
   139  135  141 1   
   140  136  137 2   
   141  136  148 1   
   142  138  139 1   
   143  138  142 1   
   144  138  143 1   
   145  139  140 1   
   146  139  144 1   
   147  139  145 1   
   148  140  146 1   
   149  140  147 1   
   150  148  149 1   
   151  148  157 1   
   152  149  150 1   
   153  149  152 1   
   154  149  158 1   
   155  150  151 2   
   156  150  163 1   
   157  152  153 1   
   158  152  159 1   
   159  152  160 1   
   160  153  154 1   
   161  153  161 1   
   162  153  162 1   
   163  154  155 1   
   164  154  156 1   
   165  163  164 1   
   166  163  168 1   
   167  164  165 1   
   168  164  166 1   
   169  164  167 1   
   170  170  171 1   
   171  170  172 1   
   172  173  174 1   
   173  173  175 1   
   174  176  177 1   
   175  176  178 1   
   176  179  180 1   
   177  179  181 1   
@<TRIPOS>SUBSTRUCTURE
     1 MOL         1 TEMP              0 ****  ****    0 ROOT
