@<TRIPOS>MOLECULE
MOL
  175   173     1     0     0
SMALL
resp


@<TRIPOS>ATOM
      1 C1         -6.5350    7.8120    1.0480 c3        1 MOL     -0.316725
      2 C2         -7.4740    6.8830    0.2130 c         1 MOL      0.665945
      3 O1         -7.3670    6.9960   -1.0060 o         1 MOL     -0.593196
      4 H1         -7.1180    8.3240    1.8140 hc        1 MOL      0.070096
      5 H2         -5.7590    7.2120    1.5240 hc        1 MOL      0.070096
      6 H3         -6.0730    8.5490    0.3900 hc        1 MOL      0.070096
      7 N1         -8.3500    6.1150    0.8420 n         1 MOL     -0.412856
      8 C3         -9.2890    5.2530    0.1290 c3        1 MOL      0.066617
      9 C4         -8.8670    3.9170   -0.4330 c         1 MOL      0.588406
     10 O2         -9.6020    3.3030   -1.2000 o         1 MOL     -0.594722
     11 C5        -10.5800    5.1080    0.9660 c3        1 MOL     -0.114594
     12 C6        -11.1130    6.3310    1.6400 c         1 MOL      0.719793
     13 O3        -11.7280    6.0730    2.6900 o         1 MOL     -0.744049
     14 O4        -11.0100    7.4670    1.1000 o         1 MOL     -0.744049
     15 H4         -8.4790    6.2890    1.8250 hn        1 MOL      0.260899
     16 H5         -9.5520    5.7910   -0.7710 h1        1 MOL      0.062541
     17 H6        -10.4340    4.2800    1.6660 hc        1 MOL      0.013898
     18 H7        -11.4340    4.8050    0.3680 hc        1 MOL      0.013898
     19 N2         -7.6240    3.4560   -0.2200 n         1 MOL     -0.589207
     20 C7         -6.9010    2.4250   -0.9770 c3        1 MOL      0.543130
     21 C8         -5.7540    1.8190   -0.1100 c         1 MOL      0.318300
     22 O5         -5.0960    2.4990    0.6700 o         1 MOL     -0.478317
     23 C9         -6.3540    3.0420   -2.2870 c3        1 MOL     -0.497159
     24 H8         -7.1280    3.9190    0.5350 hn        1 MOL      0.215741
     25 H9         -7.5950    1.6220   -1.1890 h1        1 MOL     -0.048649
     26 H10        -7.2510    3.4060   -2.7840 hc        1 MOL      0.144666
     27 H11        -5.5810    3.7870   -2.1230 hc        1 MOL      0.144666
     28 H12        -5.9090    2.2790   -2.9410 hc        1 MOL      0.144666
     29 N3         -5.2390    0.5800   -0.3970 n         1 MOL     -0.372478
     30 C10        -5.6200   -0.5050   -1.3580 c3        1 MOL     -0.035878
     31 C11        -5.7420   -1.8890   -0.6920 c         1 MOL      0.526762
     32 O6         -5.1610   -2.1610    0.3980 o         1 MOL     -0.565314
     33 C12        -4.5810   -0.5170   -2.5110 c3        1 MOL      0.065232
     34 C13        -3.0980   -0.6500   -2.1480 c         1 MOL      0.732498
     35 O7         -2.2680   -1.3060   -2.8700 o         1 MOL     -0.736595
     36 O8         -2.6630   -0.0910   -1.1160 o         1 MOL     -0.736595
     37 H13        -4.4010    0.4540    0.1440 hn        1 MOL      0.286909
     38 H14        -6.5370   -0.2860   -1.9010 h1        1 MOL      0.058680
     39 H15        -4.6940    0.3530   -3.1660 hc        1 MOL     -0.050908
     40 H16        -4.8500   -1.3930   -3.1020 hc        1 MOL     -0.050908
     41 N4         -6.4800   -2.8200   -1.3070 n         1 MOL     -0.418677
     42 C14        -6.8980   -4.1160   -0.7550 c3        1 MOL      0.009452
     43 C15        -6.5740   -5.3600   -1.6200 c         1 MOL      0.509083
     44 O9         -7.4860   -6.0340   -2.0650 o         1 MOL     -0.545444
     45 H17        -6.8840   -2.6490   -2.2170 hn        1 MOL      0.309723
     46 H18        -7.9800   -4.1080   -0.6350 h1        1 MOL      0.066856
     47 H19        -6.4970   -4.2440    0.2600 h1        1 MOL      0.066856
     48 N5         -5.3020   -5.5710   -1.9260 n         1 MOL     -0.507783
     49 C16        -4.0880   -5.0350   -1.2840 c3        1 MOL      0.054413
     50 C17        -4.0100   -5.5690    0.1860 c         1 MOL      0.579894
     51 O10        -3.8480   -6.7500    0.3810 o         1 MOL     -0.550698
     52 C18        -2.8700   -5.5040   -2.0770 c3        1 MOL     -0.225177
     53 C19        -1.7310   -4.5710   -2.0200 c         1 MOL      0.735514
     54 N6         -0.7050   -4.9040   -2.7500 n         1 MOL     -0.745091
     55 O11        -1.7150   -3.6280   -1.2260 o         1 MOL     -0.759839
     56 H20        -5.1520   -6.3740   -2.5290 hn        1 MOL      0.305732
     57 H21        -4.0940   -3.9450   -1.3680 h1        1 MOL      0.120644
     58 H22        -3.0280   -5.5000   -3.1490 hc        1 MOL      0.085918
     59 H23        -2.4320   -6.4630   -1.7760 hc        1 MOL      0.085918
     60 H24        -0.7790   -5.6460   -3.4280 hn        1 MOL      0.346449
     61 H25         0.1640   -4.4270   -2.5860 hn        1 MOL      0.346449
     62 N7         -3.9870   -4.5730    1.0680 n         1 MOL     -0.356414
     63 C20        -3.6610   -4.7320    2.5210 c3        1 MOL     -0.223525
     64 C21        -2.1770   -4.8070    2.9180 c         1 MOL      0.506331
     65 O12        -1.9660   -5.1980    4.0610 o         1 MOL     -0.556124
     66 H26        -4.2990   -3.6530    0.8050 hn        1 MOL      0.345750
     67 H27        -4.2030   -5.5720    2.9560 h1        1 MOL      0.117488
     68 H28        -4.0550   -3.8220    2.9840 h1        1 MOL      0.117488
     69 N8         -1.2490   -4.4160    2.0830 n         1 MOL     -0.217814
     70 C22         0.2230   -4.6100    2.2390 c3        1 MOL     -0.163148
     71 C23         1.0790   -3.4380    1.8860 c         1 MOL      0.478541
     72 O13         0.7900   -2.6410    1.0450 o         1 MOL     -0.509847
     73 C24         0.6790   -5.9270    1.4930 c3        1 MOL      0.421111
     74 C25        -0.3260   -7.0280    1.8890 c3        1 MOL     -0.384113
     75 O14         0.4900   -5.8770    0.0950 oh        1 MOL     -0.674570
     76 H29        -1.6070   -4.0900    1.2050 hn        1 MOL      0.260933
     77 H30         0.3750   -4.8170    3.3010 h1        1 MOL      0.075948
     78 H31         1.6990   -6.2090    1.7550 h1        1 MOL     -0.019234
     79 H32         1.1140   -5.2230   -0.2250 ho        1 MOL      0.527348
     80 H33        -1.3150   -6.8250    1.4930 hc        1 MOL      0.099846
     81 H34         0.0370   -8.0130    1.5850 hc        1 MOL      0.099846
     82 H35        -0.3420   -7.0000    2.9780 hc        1 MOL      0.099846
     83 N9          2.2370   -3.3890    2.5650 n         1 MOL     -0.237485
     84 C26         3.2010   -2.3000    2.4990 c3        1 MOL      0.036098
     85 C27         4.2380   -2.6390    1.4110 c         1 MOL      0.155430
     86 O15         4.9840   -3.6780    1.4640 o         1 MOL     -0.494260
     87 C28         3.7990   -1.9340    3.9000 c3        1 MOL      0.154451
     88 C29         4.8900   -0.9040    3.6970 c3        1 MOL     -0.034425
     89 C30         2.7020   -1.4650    4.8500 c3        1 MOL     -0.340794
     90 C31         4.5380    0.4620    3.1480 c3        1 MOL     -0.173690
     91 H36         2.3720   -4.0460    3.3200 hn        1 MOL      0.211179
     92 H37         2.6060   -1.4720    2.1340 h1        1 MOL      0.120483
     93 H38         4.3150   -2.7740    4.3570 hc        1 MOL      0.005895
     94 H39         5.6770   -1.2620    3.0350 hc        1 MOL      0.017533
     95 H40         5.3970   -0.7560    4.6530 hc        1 MOL      0.017533
     96 H41         1.8640   -2.1730    4.7760 hc        1 MOL      0.080372
     97 H42         3.0330   -1.4240    5.8910 hc        1 MOL      0.080372
     98 H43         2.2340   -0.5210    4.5760 hc        1 MOL      0.080372
     99 H44         4.3360    0.4330    2.0790 hc        1 MOL      0.038001
    100 H45         3.7690    0.9580    3.7460 hc        1 MOL      0.038001
    101 H46         5.4380    1.0710    3.1880 hc        1 MOL      0.038001
    102 N10         4.1070   -1.8890    0.2850 n         1 MOL     -0.051353
    103 C32         4.6900   -2.3310   -0.9920 c3        1 MOL      0.282843
    104 C33         5.8910   -1.4660   -1.4400 c         1 MOL      0.452880
    105 O16         6.6440   -1.7700   -2.3500 o         1 MOL     -0.546429
    106 C34         3.6550   -2.3770   -2.1160 c3        1 MOL     -0.635821
    107 C35         2.5650   -3.3530   -1.7110 c         1 MOL      0.961041
    108 O17         2.6740   -4.4370   -1.0760 o         1 MOL     -0.782928
    109 O18         1.3840   -2.9540   -2.0310 o         1 MOL     -0.782928
    110 H47         3.2760   -1.3310    0.1810 hn        1 MOL      0.093176
    111 H48         5.1460   -3.3270   -0.9820 h1        1 MOL      0.066342
    112 H49         4.1570   -2.6230   -3.0550 hc        1 MOL      0.165490
    113 H50         3.2620   -1.3660   -2.1680 hc        1 MOL      0.165490
    114 N11         6.1970   -0.4360   -0.6350 n         1 MOL     -0.663918
    115 C36         7.2800    0.4610   -0.8240 c3        1 MOL      0.456253
    116 C37         6.8180    1.8840   -0.6460 c         1 MOL      0.427895
    117 O19         6.4290    2.2040    0.4200 o         1 MOL     -0.489642
    118 C38         8.3780    0.1420    0.1300 c3        1 MOL     -0.240931
    119 C39         9.4870    1.1190    0.1720 ca        1 MOL      0.043616
    120 C40         9.4940    2.1490    1.0770 ca        1 MOL     -0.111614
    121 C41        10.4990    1.1270   -0.8500 ca        1 MOL     -0.111614
    122 C42        10.3950    3.2190    0.9980 ca        1 MOL     -0.157898
    123 C43        11.4220    2.1570   -0.9000 ca        1 MOL     -0.157898
    124 C44        11.3330    3.2610   -0.0290 ca        1 MOL     -0.059154
    125 H51         5.6550   -0.3550    0.2160 hn        1 MOL      0.344809
    126 H52         7.6900    0.2820   -1.8220 h1        1 MOL      0.007578
    127 H53         8.7090   -0.8610   -0.1340 hc        1 MOL      0.086417
    128 H54         8.0160   -0.0490    1.1440 hc        1 MOL      0.086417
    129 H55         8.7170    2.1860    1.8310 ha        1 MOL      0.103481
    130 H56        10.4830    0.3080   -1.5640 ha        1 MOL      0.103481
    131 H57        10.3330    4.0160    1.7180 ha        1 MOL      0.111225
    132 H58        12.1370    2.2460   -1.7020 ha        1 MOL      0.111225
    133 H59        11.9680    4.1240   -0.1990 ha        1 MOL      0.092428
    134 N12         6.8910    2.7880   -1.6450 n         1 MOL     -0.315415
    135 C45         6.8740    4.2360   -1.3060 c3        1 MOL      0.238710
    136 C46         5.5220    4.8420   -0.8620 c         1 MOL      0.263768
    137 O20         5.4380    6.0390   -0.5840 o         1 MOL     -0.510708
    138 C47         7.5800    4.9710   -2.3960 c3        1 MOL     -0.082990
    139 C48         8.3430    3.8270   -3.1980 c3        1 MOL     -0.071628
    140 C49         7.4390    2.5720   -2.9980 c3        1 MOL     -0.076233
    141 H60         7.5300    4.3610   -0.4460 h1        1 MOL      0.048032
    142 H61         6.8280    5.3590   -3.0730 hc        1 MOL      0.051082
    143 H62         8.2040    5.8300   -2.1500 hc        1 MOL      0.051082
    144 H63         8.3540    3.9960   -4.2820 hc        1 MOL      0.031790
    145 H64         9.2940    3.7760   -2.6750 hc        1 MOL      0.031790
    146 H65         6.5710    2.6930   -3.6470 h1        1 MOL      0.086730
    147 H66         8.0260    1.6800   -3.2520 h1        1 MOL      0.086730
    148 N13         4.5050    3.9930   -0.6660 n         1 MOL     -0.154490
    149 C50         3.1640    4.4320   -0.2220 c3        1 MOL     -0.139060
    150 C51         3.1530    5.1300    1.0780 c         1 MOL      0.626557
    151 O21         2.3950    6.0870    1.2320 o         1 MOL     -0.561963
    152 C52         2.1120    3.2540   -0.3120 c3        1 MOL     -0.145938
    153 C53         2.2390    2.1000    0.6700 c3        1 MOL      0.127049
    154 C54         1.4470    0.8340    0.3110 c         1 MOL      0.589260
    155 O22         0.2040    0.7940    0.6000 o         1 MOL     -0.703768
    156 O23         1.9890   -0.1130   -0.2460 o         1 MOL     -0.703768
    157 H67         4.5110    3.0040   -0.8750 hn        1 MOL      0.171158
    158 H68         2.7720    5.1780   -0.9200 h1        1 MOL      0.106417
    159 H69         2.1480    2.8910   -1.3340 hc        1 MOL      0.065647
    160 H70         1.1280    3.7000   -0.1300 hc        1 MOL      0.065647
    161 H71         1.9670    2.5090    1.6470 hc        1 MOL     -0.028410
    162 H72         3.2800    1.8020    0.7490 hc        1 MOL     -0.028410
    163 N14         4.0600    4.7690    2.0360 n         1 MOL     -0.258647
    164 C55         4.0570    5.1680    3.4360 c3        1 MOL     -0.116547
    165 H73         3.1140    5.6600    3.6720 h1        1 MOL      0.070823
    166 H74         4.1740    4.2860    4.0660 h1        1 MOL      0.070823
    167 H75         4.8820    5.8580    3.6190 h1        1 MOL      0.070823
    168 H76         4.7500    4.0700    1.7720 hn        1 MOL      0.195992
    169 Ca1        -0.3800   -1.3770   -0.9710 Ca        1 MOL      1.757025
    170 O24         0.3050    0.6640   -2.7390 oh        1 MOL     -0.913323
    171 H77         1.0310    1.2670   -2.9080 ho        1 MOL      0.434362
    172 H78        -0.4730    1.1330   -3.0520 ho        1 MOL      0.434362
    173 O25        -2.2040   -1.5700    1.2110 oh        1 MOL     -0.913323
    174 H79        -3.1360   -1.3740    1.1000 ho        1 MOL      0.434362
    175 H80        -1.8990   -0.9130    1.8440 ho        1 MOL      0.434362
@<TRIPOS>BOND
     1    1    2 1   
     2    1    4 1   
     3    1    5 1   
     4    1    6 1   
     5    2    3 2   
     6    2    7 1   
     7    7    8 1   
     8    7   15 1   
     9    8    9 1   
    10    8   11 1   
    11    8   16 1   
    12    9   10 2   
    13    9   19 1   
    14   11   12 1   
    15   11   17 1   
    16   11   18 1   
    17   12   13 1   
    18   12   14 1   
    19   19   20 1   
    20   19   24 1   
    21   20   21 1   
    22   20   23 1   
    23   20   25 1   
    24   21   22 2   
    25   21   29 1   
    26   23   26 1   
    27   23   27 1   
    28   23   28 1   
    29   29   30 1   
    30   29   37 1   
    31   30   31 1   
    32   30   33 1   
    33   30   38 1   
    34   31   32 2   
    35   31   41 1   
    36   33   34 1   
    37   33   39 1   
    38   33   40 1   
    39   34   35 1   
    40   34   36 1   
    41   41   42 1   
    42   41   45 1   
    43   42   43 1   
    44   42   46 1   
    45   42   47 1   
    46   43   44 2   
    47   43   48 1   
    48   48   49 1   
    49   48   56 1   
    50   49   50 1   
    51   49   52 1   
    52   49   57 1   
    53   50   51 2   
    54   50   62 1   
    55   52   53 1   
    56   52   58 1   
    57   52   59 1   
    58   53   54 1   
    59   53   55 2   
    60   54   60 1   
    61   54   61 1   
    62   62   63 1   
    63   62   66 1   
    64   63   64 1   
    65   63   67 1   
    66   63   68 1   
    67   64   65 2   
    68   64   69 1   
    69   69   70 1   
    70   69   76 1   
    71   70   71 1   
    72   70   73 1   
    73   70   77 1   
    74   71   72 2   
    75   71   83 1   
    76   73   74 1   
    77   73   75 1   
    78   73   78 1   
    79   74   80 1   
    80   74   81 1   
    81   74   82 1   
    82   75   79 1   
    83   83   84 1   
    84   83   91 1   
    85   84   85 1   
    86   84   87 1   
    87   84   92 1   
    88   85   86 2   
    89   85  102 1   
    90   87   88 1   
    91   87   89 1   
    92   87   93 1   
    93   88   90 1   
    94   88   94 1   
    95   88   95 1   
    96   89   96 1   
    97   89   97 1   
    98   89   98 1   
    99   90   99 1   
   100   90  100 1   
   101   90  101 1   
   102  102  103 1   
   103  102  110 1   
   104  103  104 1   
   105  103  106 1   
   106  103  111 1   
   107  104  105 2   
   108  104  114 1   
   109  106  107 1   
   110  106  112 1   
   111  106  113 1   
   112  107  108 1   
   113  107  109 1   
   114  114  115 1   
   115  114  125 1   
   116  115  116 1   
   117  115  118 1   
   118  115  126 1   
   119  116  117 2   
   120  116  134 1   
   121  118  119 1   
   122  118  127 1   
   123  118  128 1   
   124  119  120 ar  
   125  119  121 ar  
   126  120  122 ar  
   127  120  129 1   
   128  121  123 ar  
   129  121  130 1   
   130  122  124 ar  
   131  122  131 1   
   132  123  124 ar  
   133  123  132 1   
   134  124  133 1   
   135  134  135 1   
   136  134  140 1   
   137  135  136 1   
   138  135  138 1   
   139  135  141 1   
   140  136  137 2   
   141  136  148 1   
   142  138  139 1   
   143  138  142 1   
   144  138  143 1   
   145  139  140 1   
   146  139  144 1   
   147  139  145 1   
   148  140  146 1   
   149  140  147 1   
   150  148  149 1   
   151  148  157 1   
   152  149  150 1   
   153  149  152 1   
   154  149  158 1   
   155  150  151 2   
   156  150  163 1   
   157  152  153 1   
   158  152  159 1   
   159  152  160 1   
   160  153  154 1   
   161  153  161 1   
   162  153  162 1   
   163  154  155 1   
   164  154  156 1   
   165  163  164 1   
   166  163  168 1   
   167  164  165 1   
   168  164  166 1   
   169  164  167 1   
   170  170  171 1   
   171  170  172 1   
   172  173  174 1   
   173  173  175 1   
@<TRIPOS>SUBSTRUCTURE
     1 MOL         1 TEMP              0 ****  ****    0 ROOT
