@<TRIPOS>MOLECULE
MOL
  192   187     1     0     0
SMALL
resp


@<TRIPOS>ATOM
      1 C1         -4.3690   -5.1230    4.1270 c3        1 MOL     -0.404570
      2 C2         -4.1390   -4.2280    2.8220 c         1 MOL      0.599970
      3 O1         -4.0760   -4.7310    1.7060 o         1 MOL     -0.556678
      4 H1         -5.2080   -4.7240    4.6970 hc        1 MOL      0.107047
      5 H2         -4.5880   -6.1500    3.8310 hc        1 MOL      0.107047
      6 H3         -3.4700   -5.1060    4.7430 hc        1 MOL      0.107047
      7 N1         -4.1960   -2.9060    2.9410 n         1 MOL     -0.375307
      8 C3         -4.3940   -1.9730    1.8400 c3        1 MOL      0.058028
      9 C4         -3.0470   -1.1740    1.6520 c         1 MOL      0.220995
     10 O2         -3.0260   -0.0590    1.0650 o         1 MOL     -0.399997
     11 C5         -5.6380   -1.0520    2.0940 c3        1 MOL     -0.248174
     12 C6         -5.6430   -0.3380    3.4330 c         1 MOL      0.748565
     13 O3         -5.6780   -1.0590    4.4840 o         1 MOL     -0.739564
     14 O4         -5.6640    0.9170    3.4800 o         1 MOL     -0.739564
     15 H4         -4.3340   -2.5380    3.8710 hn        1 MOL      0.243241
     16 H5         -4.4380   -2.5250    0.8960 h1        1 MOL      0.160714
     17 H6         -6.6030   -1.5670    2.0370 hc        1 MOL      0.086853
     18 H7         -5.6460   -0.2720    1.3430 hc        1 MOL      0.086853
     19 N2         -1.9780   -1.6400    2.2300 n         1 MOL     -0.136687
     20 C7         -0.6050   -1.0560    2.0640 c3        1 MOL      0.125719
     21 C8          0.4650   -2.1720    1.7390 c         1 MOL      0.339297
     22 O5          0.3780   -3.3070    2.2880 o         1 MOL     -0.504876
     23 C9         -0.2050   -0.1310    3.2470 c3        1 MOL     -0.059435
     24 C10        -0.0650   -0.7510    4.6110 c3        1 MOL     -0.222147
     25 C11         0.4670    0.2520    5.6620 c3        1 MOL      0.026547
     26 C12        -0.4190    1.4700    5.9910 c3        1 MOL      0.192446
     27 N3          0.1710    2.4090    7.0110 n4        1 MOL     -0.533133
     28 H8         -2.1270   -2.4520    2.8000 hn        1 MOL      0.152486
     29 H9         -0.6850   -0.3750    1.2200 h1        1 MOL      0.037597
     30 H10        -1.0120    0.5780    3.4200 hc        1 MOL      0.054125
     31 H11         0.6900    0.4550    3.0340 hc        1 MOL      0.054125
     32 H12         0.6160   -1.6020    4.6130 hc        1 MOL      0.106137
     33 H13        -1.0870   -1.0500    4.8340 hc        1 MOL      0.106137
     34 H14         1.3760    0.7000    5.2760 hc        1 MOL      0.010828
     35 H15         0.6680   -0.2230    6.6330 hc        1 MOL      0.010828
     36 H16        -1.3760    1.0480    6.2850 hx        1 MOL      0.043158
     37 H17        -0.5630    1.9640    5.0220 hx        1 MOL      0.043158
     38 H18         0.9820    2.8650    6.6120 hn        1 MOL      0.364774
     39 H19        -0.5000    3.1390    7.2200 hn        1 MOL      0.364774
     40 H20         0.4730    1.9370    7.8570 hn        1 MOL      0.364774
     41 N4          1.3160   -2.0190    0.7300 n         1 MOL     -0.258273
     42 C13         1.7400   -0.7840   -0.0730 c3        1 MOL     -0.029234
     43 C14         2.0010    0.5070    0.7590 c         1 MOL      0.031253
     44 O6          1.4580    1.5920    0.6550 o         1 MOL     -0.240749
     45 C15         0.8960   -0.5520   -1.3810 c3        1 MOL     -0.052307
     46 C16         0.6430   -1.8890   -2.1840 c         1 MOL      0.717959
     47 O7         -0.0740   -1.9030   -3.1630 o         1 MOL     -0.811914
     48 O8          1.2060   -2.9220   -1.9420 o         1 MOL     -0.811914
     49 H21         1.7230   -2.8690    0.3530 hn        1 MOL      0.282577
     50 H22         2.7130   -1.1170   -0.4270 h1        1 MOL      0.105099
     51 H23         1.4600    0.1120   -2.0360 hc        1 MOL      0.106905
     52 H24        -0.0630   -0.1910   -1.0000 hc        1 MOL      0.106905
     53 N5          2.9030    0.3760    1.6880 n         1 MOL     -0.246555
     54 C17         4.0610   -0.5140    1.6220 c3        1 MOL      0.106515
     55 C18         3.9330   -1.6240    2.6710 c         1 MOL      0.418132
     56 O9          3.1770   -1.5760    3.6090 o         1 MOL     -0.499226
     57 H25         3.1060    1.1880    2.2580 hn        1 MOL      0.281787
     58 H26         4.9460    0.0480    1.8990 h1        1 MOL      0.050056
     59 H27         4.2560   -0.8330    0.5940 h1        1 MOL      0.050056
     60 N6          4.7790   -2.6820    2.5940 n         1 MOL     -0.376801
     61 C19         5.7240   -3.1070    1.4940 c3        1 MOL     -0.030438
     62 C20         6.8830   -2.1040    1.3660 c         1 MOL      0.561225
     63 O10         7.1290   -1.3210    2.2700 o         1 MOL     -0.493233
     64 C21         6.2480   -4.4890    1.6300 c3        1 MOL     -0.196264
     65 C22         7.0610   -4.6990    2.9040 c         1 MOL      0.747409
     66 O11         6.5450   -4.6490    4.0450 o         1 MOL     -0.675146
     67 O12         8.2340   -5.0180    2.7680 o         1 MOL     -0.675146
     68 H28         4.7300   -3.3580    3.3470 hn        1 MOL      0.276834
     69 H29         5.2120   -3.0620    0.5300 h1        1 MOL      0.036377
     70 H30         6.8590   -4.6660    0.7440 hc        1 MOL      0.028132
     71 H31         5.4280   -5.2130    1.6090 hc        1 MOL      0.028132
     72 N7          7.4820   -1.9900    0.1690 n         1 MOL     -0.343009
     73 C23         8.6000   -1.0330   -0.0890 c3        1 MOL     -0.249461
     74 C24         8.1300    0.3250   -0.5530 c         1 MOL      0.459322
     75 O13         8.8290    1.3370   -0.2300 o         1 MOL     -0.529357
     76 H32         7.2660   -2.6790   -0.5450 hn        1 MOL      0.265088
     77 H33         9.1410   -1.4920   -0.9180 h1        1 MOL      0.158819
     78 H34         9.2830   -1.0310    0.7640 h1        1 MOL      0.158819
     79 N8          6.9510    0.4470   -1.1760 n         1 MOL     -0.241603
     80 C25         6.4000    1.6430   -1.8170 c3        1 MOL     -0.059977
     81 C26         5.0690    2.0620   -1.2080 c         1 MOL      0.396241
     82 O14         4.1940    1.2030   -1.0200 o         1 MOL     -0.476111
     83 C27         6.3480    1.5640   -3.3440 c3        1 MOL      0.455684
     84 C28         7.7420    1.2020   -3.8900 c3        1 MOL     -0.320735
     85 O15         5.8210    2.7520   -3.8810 oh        1 MOL     -0.609688
     86 H35         6.4980   -0.4340   -1.3100 hn        1 MOL      0.166855
     87 H36         7.1150    2.4290   -1.5790 h1        1 MOL      0.049777
     88 H37         5.6940    0.7380   -3.6140 h1        1 MOL     -0.009101
     89 H38         6.4520    3.3820   -3.5280 ho        1 MOL      0.383071
     90 H39         7.9060    1.6040   -4.8970 hc        1 MOL      0.073680
     91 H40         8.3320    1.8340   -3.2260 hc        1 MOL      0.073680
     92 H41         8.0630    0.1580   -3.9000 hc        1 MOL      0.073680
     93 N9          4.9230    3.2740   -0.8250 n         1 MOL     -0.162658
     94 C29         3.7550    3.8200   -0.0300 c3        1 MOL     -0.313100
     95 C30         2.5100    4.1720   -0.8480 c         1 MOL      0.560503
     96 O16         1.7600    5.0060   -0.4540 o         1 MOL     -0.563505
     97 C31         4.3400    4.9660    0.9150 c3        1 MOL      0.148347
     98 C32         4.6700    6.2590    0.1190 c3        1 MOL      0.004152
     99 C33         5.5860    4.4020    1.6380 c3        1 MOL     -0.259987
    100 C34         5.3230    7.3790    0.8620 c3        1 MOL     -0.225557
    101 H42         5.4350    3.9640   -1.3400 hn        1 MOL      0.189884
    102 H43         3.4670    2.9690    0.5850 h1        1 MOL      0.186046
    103 H44         3.6190    5.1220    1.7160 hc        1 MOL      0.034056
    104 H45         3.8680    6.6410   -0.5160 hc        1 MOL      0.044638
    105 H46         5.3760    5.9170   -0.6490 hc        1 MOL      0.044638
    106 H47         6.4320    4.4810    0.9540 hc        1 MOL      0.069253
    107 H48         5.8630    5.1240    2.4150 hc        1 MOL      0.069253
    108 H49         5.3770    3.4270    2.0820 hc        1 MOL      0.069253
    109 H50         4.8090    7.6920    1.7740 hc        1 MOL      0.056784
    110 H51         6.3300    7.1240    1.2050 hc        1 MOL      0.056784
    111 H52         5.4740    8.2250    0.1830 hc        1 MOL      0.056784
    112 N10         2.3150    3.5120   -2.0010 n         1 MOL     -0.322546
    113 C35         1.0390    3.5270   -2.7720 c3        1 MOL      0.122227
    114 C36        -0.2110    2.7470   -2.1370 c         1 MOL      0.522948
    115 O17        -0.8980    2.0060   -2.7610 o         1 MOL     -0.496781
    116 C37         1.3030    3.2770   -4.2650 c3        1 MOL      0.240181
    117 C38         2.0330    2.0230   -4.6310 c3        1 MOL     -0.356134
    118 O18         2.0560    4.3190   -4.7160 oh        1 MOL     -0.663186
    119 H53         2.9630    2.7640   -2.1790 hn        1 MOL      0.151802
    120 H54         0.5850    4.5180   -2.7650 h1        1 MOL      0.095797
    121 H55         0.3580    3.2320   -4.8100 h1        1 MOL      0.043698
    122 H56         2.4240    4.1210   -5.5800 ho        1 MOL      0.424107
    123 H57         3.0600    2.0500   -4.2710 hc        1 MOL      0.097204
    124 H58         1.5200    1.1310   -4.2750 hc        1 MOL      0.097204
    125 H59         2.2370    1.8780   -5.6880 hc        1 MOL      0.097204
    126 N11        -0.5160    3.1970   -0.9210 n         1 MOL     -0.654387
    127 C39        -1.7150    2.6870   -0.1420 c3        1 MOL     -0.087861
    128 C40        -2.9510    2.8910   -0.9500 c         1 MOL      0.592069
    129 O19        -3.0390    3.7190   -1.8270 o         1 MOL     -0.528838
    130 C41        -1.7720    3.2580    1.3030 c3        1 MOL      0.365158
    131 C42        -2.2760    4.7030    1.4210 c3        1 MOL     -0.259948
    132 O20        -0.4710    3.1580    1.8370 oh        1 MOL     -0.528859
    133 H60         0.0980    3.8690   -0.4680 hn        1 MOL      0.385073
    134 H61        -1.5240    1.6140   -0.1570 h1        1 MOL      0.105664
    135 H62        -2.3440    2.5770    1.9270 h1        1 MOL      0.001533
    136 H63         0.0430    2.4870    1.3730 ho        1 MOL      0.185949
    137 H64        -2.1340    5.3250    0.5390 hc        1 MOL      0.066121
    138 H65        -3.3590    4.8010    1.4390 hc        1 MOL      0.066121
    139 H66        -1.8320    5.2960    2.2280 hc        1 MOL      0.066121
    140 N12        -4.0850    2.1790   -0.6220 n         1 MOL     -0.141996
    141 C43        -5.4020    2.3280   -1.1840 c3        1 MOL     -0.125231
    142 C44        -6.1170    0.9900   -1.6080 c         1 MOL      0.508914
    143 O21        -7.2870    1.0960   -1.9790 o         1 MOL     -0.578573
    144 C45        -6.2240    3.1090   -0.1420 c3        1 MOL      0.049139
    145 C46        -7.4430    3.7690   -0.6070 c3        1 MOL      0.147290
    146 C47        -7.9720    4.7650    0.4490 c3        1 MOL     -0.029112
    147 C48        -9.1970    5.6510    0.0820 c3        1 MOL      0.046198
    148 N13        -9.4280    6.6480    1.1680 n4        1 MOL     -0.269234
    149 H67        -3.9980    1.4980    0.1240 hn        1 MOL      0.044790
    150 H68        -5.2480    2.9530   -2.0610 h1        1 MOL      0.081845
    151 H69        -5.5430    3.7840    0.3770 hc        1 MOL     -0.015421
    152 H70        -6.5260    2.4380    0.6630 hc        1 MOL     -0.015421
    153 H71        -8.2890    3.1190   -0.8290 hc        1 MOL     -0.013470
    154 H72        -7.1970    4.3520   -1.4970 hc        1 MOL     -0.013470
    155 H73        -7.1830    5.4780    0.6790 hc        1 MOL      0.021381
    156 H74        -8.2810    4.1700    1.3040 hc        1 MOL      0.021381
    157 H75       -10.0830    5.0390   -0.0810 hx        1 MOL      0.062949
    158 H76        -8.8690    6.1100   -0.8440 hx        1 MOL      0.062949
    159 H77        -9.6490    6.2350    2.0650 hn        1 MOL      0.276908
    160 H78        -8.5540    7.1320    1.2760 hn        1 MOL      0.276908
    161 H79       -10.1630    7.2940    0.9020 hn        1 MOL      0.276908
    162 N14        -5.3600   -0.0930   -1.5980 n         1 MOL     -0.166576
    163 C49        -5.7760   -1.4300   -2.0140 c3        1 MOL     -0.147925
    164 C50        -6.8450   -2.1300   -1.1510 c         1 MOL      0.496862
    165 O22        -6.6130   -3.0570   -0.3490 o         1 MOL     -0.484772
    166 C51        -4.4500   -2.2160   -2.1800 c3        1 MOL      0.177353
    167 C52        -4.5860   -3.3500   -3.2140 c3        1 MOL     -0.209462
    168 C53        -3.2490   -4.1010   -3.4070 c         1 MOL      0.676970
    169 O23        -2.5910   -3.9260   -4.4520 o         1 MOL     -0.713893
    170 O24        -2.7000   -4.7170   -2.4920 o         1 MOL     -0.713893
    171 H80        -4.3820    0.0710   -1.4200 hn        1 MOL      0.110934
    172 H81        -6.2320   -1.3510   -3.0040 h1        1 MOL      0.057689
    173 H82        -4.0370   -2.6680   -1.2720 hc        1 MOL      0.025445
    174 H83        -3.7060   -1.5840   -2.6740 hc        1 MOL      0.025445
    175 H84        -4.9830   -3.0620   -4.1820 hc        1 MOL      0.033201
    176 H85        -5.3800   -3.9800   -2.8120 hc        1 MOL      0.033201
    177 N15        -8.0640   -1.6760   -1.2860 n         1 MOL     -0.311552
    178 C54        -9.2780   -2.1070   -0.6360 c3        1 MOL     -0.170014
    179 H86        -9.2360   -1.8450    0.4210 h1        1 MOL      0.091191
    180 H87       -10.1330   -1.6140   -1.0980 h1        1 MOL      0.091191
    181 H88        -9.3820   -3.1880   -0.7380 h1        1 MOL      0.091191
    182 H89        -8.1450   -0.7690   -1.7400 hn        1 MOL      0.268070
    183 Ca1        -0.1210   -4.6170   -3.3950 Ca        1 MOL      1.789595
    184 O25        -0.6840   -7.3720   -3.5800 oh        1 MOL     -0.882359
    185 H90        -0.1970   -8.1180   -3.9260 ho        1 MOL      0.435169
    186 H91        -1.5970   -7.6630   -3.5450 ho        1 MOL      0.435169
    187 O26        -0.3130   -5.4170   -6.0380 oh        1 MOL     -0.882359
    188 H92        -0.5730   -6.2310   -6.4580 ho        1 MOL      0.435169
    189 H93         0.1880   -4.9490   -6.7110 ho        1 MOL      0.435169
    190 O27        -0.3260   -5.6400   -1.0770 oh        1 MOL     -0.882359
    191 H94         0.3490   -5.8580   -0.4350 ho        1 MOL      0.435169
    192 H95        -1.1460   -5.8860   -0.6630 ho        1 MOL      0.435169
@<TRIPOS>BOND
     1    1    2 1   
     2    1    4 1   
     3    1    5 1   
     4    1    6 1   
     5    2    3 2   
     6    2    7 1   
     7    7    8 1   
     8    7   15 1   
     9    8    9 1   
    10    8   11 1   
    11    8   16 1   
    12    9   10 2   
    13    9   19 1   
    14   11   12 1   
    15   11   17 1   
    16   11   18 1   
    17   12   13 1   
    18   12   14 1   
    19   19   20 1   
    20   19   28 1   
    21   20   21 1   
    22   20   23 1   
    23   20   29 1   
    24   21   22 2   
    25   21   41 1   
    26   23   24 1   
    27   23   30 1   
    28   23   31 1   
    29   24   25 1   
    30   24   32 1   
    31   24   33 1   
    32   25   26 1   
    33   25   34 1   
    34   25   35 1   
    35   26   27 1   
    36   26   36 1   
    37   26   37 1   
    38   27   38 1   
    39   27   39 1   
    40   27   40 1   
    41   41   42 1   
    42   41   49 1   
    43   42   43 1   
    44   42   45 1   
    45   42   50 1   
    46   43   44 2   
    47   43   53 1   
    48   45   46 1   
    49   45   51 1   
    50   45   52 1   
    51   46   47 1   
    52   46   48 1   
    53   53   54 1   
    54   53   57 1   
    55   54   55 1   
    56   54   58 1   
    57   54   59 1   
    58   55   56 2   
    59   55   60 1   
    60   60   61 1   
    61   60   68 1   
    62   61   62 1   
    63   61   64 1   
    64   61   69 1   
    65   62   63 2   
    66   62   72 1   
    67   64   65 1   
    68   64   70 1   
    69   64   71 1   
    70   65   66 1   
    71   65   67 1   
    72   72   73 1   
    73   72   76 1   
    74   73   74 1   
    75   73   77 1   
    76   73   78 1   
    77   74   75 2   
    78   74   79 1   
    79   79   80 1   
    80   79   86 1   
    81   80   81 1   
    82   80   83 1   
    83   80   87 1   
    84   81   82 2   
    85   81   93 1   
    86   83   84 1   
    87   83   85 1   
    88   83   88 1   
    89   84   90 1   
    90   84   91 1   
    91   84   92 1   
    92   85   89 1   
    93   93   94 1   
    94   93  101 1   
    95   94   95 1   
    96   94   97 1   
    97   94  102 1   
    98   95   96 2   
    99   95  112 1   
   100   97   98 1   
   101   97   99 1   
   102   97  103 1   
   103   98  100 1   
   104   98  104 1   
   105   98  105 1   
   106   99  106 1   
   107   99  107 1   
   108   99  108 1   
   109  100  109 1   
   110  100  110 1   
   111  100  111 1   
   112  112  113 1   
   113  112  119 1   
   114  113  114 1   
   115  113  116 1   
   116  113  120 1   
   117  114  115 2   
   118  114  126 1   
   119  116  117 1   
   120  116  118 1   
   121  116  121 1   
   122  117  123 1   
   123  117  124 1   
   124  117  125 1   
   125  118  122 1   
   126  126  127 1   
   127  126  133 1   
   128  127  128 1   
   129  127  130 1   
   130  127  134 1   
   131  128  129 2   
   132  128  140 1   
   133  130  131 1   
   134  130  132 1   
   135  130  135 1   
   136  131  137 1   
   137  131  138 1   
   138  131  139 1   
   139  132  136 1   
   140  140  141 1   
   141  140  149 1   
   142  141  142 1   
   143  141  144 1   
   144  141  150 1   
   145  142  143 2   
   146  142  162 1   
   147  144  145 1   
   148  144  151 1   
   149  144  152 1   
   150  145  146 1   
   151  145  153 1   
   152  145  154 1   
   153  146  147 1   
   154  146  155 1   
   155  146  156 1   
   156  147  148 1   
   157  147  157 1   
   158  147  158 1   
   159  148  159 1   
   160  148  160 1   
   161  148  161 1   
   162  162  163 1   
   163  162  171 1   
   164  163  164 1   
   165  163  166 1   
   166  163  172 1   
   167  164  165 2   
   168  164  177 1   
   169  166  167 1   
   170  166  173 1   
   171  166  174 1   
   172  167  168 1   
   173  167  175 1   
   174  167  176 1   
   175  168  169 1   
   176  168  170 1   
   177  177  178 1   
   178  177  182 1   
   179  178  179 1   
   180  178  180 1   
   181  178  181 1   
   182  184  185 1   
   183  184  186 1   
   184  187  188 1   
   185  187  189 1   
   186  190  191 1   
   187  190  192 1   
@<TRIPOS>SUBSTRUCTURE
     1 MOL         1 TEMP              0 ****  ****    0 ROOT
