@<TRIPOS>MOLECULE
MOL
  185   180     1     0     0
SMALL
resp


@<TRIPOS>ATOM
      1 C1          3.9720    4.3700    2.1510 c3        1 MOL     -0.190238
      2 C2          4.6460    3.5890    1.0430 c         1 MOL      0.744881
      3 O1          4.2370    2.4570    0.6550 o         1 MOL     -0.637991
      4 H1          2.9600    4.6340    1.8440 hc        1 MOL      0.038188
      5 H2          3.9300    3.7600    3.0530 hc        1 MOL      0.038188
      6 H3          4.5380    5.2790    2.3510 hc        1 MOL      0.038188
      7 N1          5.6790    4.1940    0.5390 n         1 MOL     -0.629806
      8 C3          6.5250    3.6990   -0.5430 c3        1 MOL      0.025333
      9 C4          7.2230    2.3190   -0.2770 c         1 MOL      0.384269
     10 O2          7.6180    1.7240   -1.3450 o         1 MOL     -0.481914
     11 C5          5.5980    3.6490   -1.8410 c3        1 MOL     -0.134929
     12 C6          4.6900    4.9080   -2.0000 c         1 MOL      0.720300
     13 O3          3.6430    4.8770   -2.7050 o         1 MOL     -0.662737
     14 O4          5.1110    6.0200   -1.5300 o         1 MOL     -0.662737
     15 H4          5.9830    5.0890    0.9150 hn        1 MOL      0.356672
     16 H5          7.2340    4.5260   -0.6380 h1        1 MOL      0.097242
     17 H6          4.9960    2.7460   -1.8580 hc        1 MOL      0.052282
     18 H7          6.2770    3.7420   -2.6780 hc        1 MOL      0.052282
     19 N2          7.2100    1.8020    0.9550 n         1 MOL     -0.416794
     20 C7          7.9070    0.4660    1.2130 c3        1 MOL     -0.050899
     21 C8          7.1380   -0.8130    0.6840 c         1 MOL      0.486275
     22 O5          7.6750   -1.9470    0.7630 o         1 MOL     -0.551676
     23 C9          8.2020    0.4160    2.7020 c3        1 MOL     -0.031398
     24 C10         9.4190    1.2270    3.0540 c3        1 MOL      0.058260
     25 C11         9.9350    0.9410    4.4140 c3        1 MOL     -0.086965
     26 C12        10.5210   -0.5010    4.4620 c3        1 MOL      0.027848
     27 N3         11.3460   -0.8350    5.5840 n4        1 MOL     -0.158428
     28 H8          6.8350    2.4020    1.6730 hn        1 MOL      0.295816
     29 H9          8.8890    0.4870    0.7540 h1        1 MOL      0.117209
     30 H10         8.4420   -0.5920    3.0580 hc        1 MOL      0.039592
     31 H11         7.3630    0.8290    3.2610 hc        1 MOL      0.039592
     32 H12         9.1710    2.2850    3.0180 hc        1 MOL      0.007406
     33 H13        10.1560    0.9420    2.3120 hc        1 MOL      0.007406
     34 H14         9.1470    1.0360    5.1540 hc        1 MOL      0.043985
     35 H15        10.7850    1.5980    4.6260 hc        1 MOL      0.043985
     36 H16        11.1150   -0.6980    3.5630 hx        1 MOL      0.070585
     37 H17         9.7090   -1.2160    4.3350 hx        1 MOL      0.070585
     38 H18        11.5400   -1.8130    5.7500 hn        1 MOL      0.232465
     39 H19        12.2870   -0.5380    5.3560 hn        1 MOL      0.232465
     40 H20        11.1830   -0.2270    6.3830 hn        1 MOL      0.232465
     41 N4          5.9500   -0.5440    0.1420 n         1 MOL     -0.448618
     42 C13         5.0350   -1.5000   -0.4770 c3        1 MOL      0.328149
     43 C14         4.4600   -1.1380   -1.8110 c         1 MOL      0.447055
     44 O6          4.1950    0.0030   -2.0730 o         1 MOL     -0.382719
     45 C15         3.9440   -1.8260    0.5720 c3        1 MOL     -0.270994
     46 C16         3.0010   -2.9470    0.1770 c         1 MOL      0.637285
     47 O7          3.0260   -4.0620    0.7240 o         1 MOL     -0.649213
     48 O8          2.3860   -2.8490   -0.8940 o         1 MOL     -0.649213
     49 H21         5.7720    0.4450    0.1140 hn        1 MOL      0.305707
     50 H22         5.6140   -2.4020   -0.6810 h1        1 MOL      0.009052
     51 H23         3.3300   -0.9570    0.8020 hc        1 MOL      0.081791
     52 H24         4.4620   -2.1700    1.4660 hc        1 MOL      0.081791
     53 N5          4.2530   -2.1210   -2.7110 n         1 MOL     -0.487365
     54 C17         3.7970   -1.9280   -4.1010 c3        1 MOL     -0.102852
     55 C18         2.3930   -1.3190   -4.2260 c         1 MOL      0.416722
     56 O9          1.9980   -0.8300   -5.2900 o         1 MOL     -0.548237
     57 H25         4.5740   -3.0480   -2.4430 hn        1 MOL      0.280973
     58 H26         3.7580   -2.8260   -4.7050 h1        1 MOL      0.101805
     59 H27         4.4570   -1.2000   -4.5820 h1        1 MOL      0.101805
     60 N6          1.5610   -1.3690   -3.1970 n         1 MOL     -0.078775
     61 C19         0.2280   -0.7640   -3.2160 c3        1 MOL     -0.116445
     62 C20         0.2700    0.7660   -2.8440 c         1 MOL      0.726564
     63 O10        -0.6330    1.4260   -3.2760 o         1 MOL     -0.595426
     64 C21        -0.6000   -1.4390   -2.1390 c3        1 MOL     -0.440887
     65 C22        -0.8800   -2.8190   -2.5690 c         1 MOL      0.866305
     66 N7         -1.6120   -2.9890   -3.6530 n         1 MOL     -0.800112
     67 O11        -0.5500   -3.8120   -1.9820 o         1 MOL     -0.686061
     68 H28         1.8900   -1.7640   -2.3240 hn        1 MOL      0.099266
     69 H29        -0.2210   -0.8120   -4.2110 h1        1 MOL      0.090746
     70 H30        -1.5540   -0.9250   -2.0660 hc        1 MOL      0.160915
     71 H31        -0.1600   -1.4950   -1.1360 hc        1 MOL      0.160915
     72 H32        -2.0720   -2.2260   -4.1270 hn        1 MOL      0.357100
     73 H33        -1.9110   -3.9410   -3.8190 hn        1 MOL      0.357100
     74 N8          1.3150    1.2200   -2.2110 n         1 MOL     -0.497751
     75 C23         1.4150    2.6080   -1.8020 c3        1 MOL      0.036770
     76 C24         0.3550    3.1760   -0.9070 c         1 MOL      0.558226
     77 O12         0.2040    2.6470    0.2260 o         1 MOL     -0.562077
     78 H34         2.0900    0.6320   -1.9350 hn        1 MOL      0.303622
     79 H35         1.5770    3.1740   -2.7180 h1        1 MOL      0.084286
     80 H36         2.3850    2.7820   -1.3350 h1        1 MOL      0.084286
     81 N9         -0.3470    4.2210   -1.2900 n         1 MOL     -0.692899
     82 C25        -1.5300    4.8990   -0.7160 c3        1 MOL      0.443572
     83 C26        -2.7100    4.0150   -0.1970 c         1 MOL      0.311777
     84 O13        -3.8080    4.2250   -0.6820 o         1 MOL     -0.555256
     85 C27        -1.0270    5.8170    0.4190 c3        1 MOL     -0.043165
     86 C28        -1.9870    6.9910    0.6340 ca        1 MOL     -0.008361
     87 C29        -2.2370    7.9450   -0.4350 ca        1 MOL     -0.195099
     88 C30        -2.5860    7.1680    1.8850 ca        1 MOL     -0.195099
     89 C31        -3.3460    8.8070   -0.3060 ca        1 MOL     -0.216410
     90 C32        -3.5890    8.1330    1.9830 ca        1 MOL     -0.216410
     91 C33        -4.0470    8.9000    0.9350 ca        1 MOL      0.337124
     92 O14        -5.0470    9.7790    1.2090 oh        1 MOL     -0.497229
     93 H37        -0.0680    4.5690   -2.1950 hn        1 MOL      0.347110
     94 H38        -1.8970    5.5840   -1.4890 h1        1 MOL      0.013522
     95 H39        -0.0560    6.2370    0.1580 hc        1 MOL      0.048182
     96 H40        -0.9780    5.2690    1.3660 hc        1 MOL      0.048182
     97 H41        -1.7390    7.9260   -1.4000 ha        1 MOL      0.157135
     98 H42        -2.1740    6.8080    2.8170 ha        1 MOL      0.157135
     99 H43        -3.6300    9.4320   -1.1390 ha        1 MOL      0.130271
    100 H44        -4.0150    8.3940    2.9460 ha        1 MOL      0.130271
    101 H45        -5.2930    9.8830    2.1330 ho        1 MOL      0.352678
    102 N10        -2.4500    2.9010    0.4760 n         1 MOL     -0.199607
    103 C34        -3.4670    2.0080    0.9750 c3        1 MOL      0.052957
    104 C35        -4.2190    1.0980   -0.0080 c         1 MOL      0.361467
    105 O15        -3.9690   -0.1290   -0.0790 o         1 MOL     -0.501532
    106 C36        -4.4580    2.7140    1.9720 c3        1 MOL      0.463534
    107 C37        -3.7240    3.6510    3.0520 c3        1 MOL     -0.187447
    108 C38        -5.3550    1.7690    2.7650 c3        1 MOL     -0.379318
    109 C39        -2.4760    3.1230    3.7520 c3        1 MOL     -0.044606
    110 H46        -1.4870    2.6710    0.6600 hn        1 MOL      0.254151
    111 H47        -2.9970    1.3260    1.6800 h1        1 MOL      0.018256
    112 H48        -5.1430    3.3410    1.4000 hc        1 MOL     -0.108919
    113 H49        -4.5060    3.7950    3.7830 hc        1 MOL      0.011168
    114 H50        -3.4200    4.5640    2.5250 hc        1 MOL      0.011168
    115 H51        -6.2330    2.2660    3.1700 hc        1 MOL      0.084161
    116 H52        -5.5320    0.8570    2.2000 hc        1 MOL      0.084161
    117 H53        -4.7370    1.3600    3.5720 hc        1 MOL      0.084161
    118 H54        -2.0630    3.9040    4.4000 hc        1 MOL      0.018478
    119 H55        -2.7120    2.3120    4.4410 hc        1 MOL      0.018478
    120 H56        -1.6100    2.7940    3.1780 hc        1 MOL      0.018478
    121 N11        -5.0020    1.6630   -0.9420 n         1 MOL     -0.391209
    122 C40        -5.6470    0.9890   -2.0610 c3        1 MOL      0.191289
    123 C41        -6.8650    0.2070   -1.6350 c         1 MOL      0.194197
    124 O16        -7.2090   -0.7370   -2.3700 o         1 MOL     -0.475195
    125 C42        -6.1720    1.9680   -3.0880 c3        1 MOL     -0.016279
    126 O17        -5.2150    2.9610   -3.4680 oh        1 MOL     -0.541068
    127 H57        -5.0710    2.6650   -0.8690 hn        1 MOL      0.337288
    128 H58        -4.9750    0.2930   -2.5650 h1        1 MOL      0.066488
    129 H59        -6.9430    2.5750   -2.6260 h1        1 MOL      0.101007
    130 H60        -6.4450    1.3410   -3.9380 h1        1 MOL      0.101007
    131 H61        -4.5550    2.3750   -3.8410 ho        1 MOL      0.374850
    132 N12        -7.4830    0.5900   -0.5160 n         1 MOL     -0.208273
    133 C43        -8.5060   -0.1500    0.2000 c3        1 MOL      0.131272
    134 C44        -8.0600   -1.6320    0.6070 c         1 MOL      0.568672
    135 O18        -8.9080   -2.4650    0.9790 o         1 MOL     -0.522777
    136 C45        -9.9050   -0.0950   -0.4930 c3        1 MOL     -0.438348
    137 H62        -7.2090    1.4750   -0.1120 hn        1 MOL      0.186540
    138 H63        -8.5590    0.3200    1.1790 h1        1 MOL      0.064357
    139 H64       -10.5110   -0.7680    0.1090 hc        1 MOL      0.126355
    140 H65       -10.3220    0.9110   -0.4970 hc        1 MOL      0.126355
    141 H66        -9.8880   -0.3640   -1.5500 hc        1 MOL      0.126355
    142 N13        -6.7190   -1.8940    0.7300 n         1 MOL     -0.709501
    143 C46        -6.1410   -3.2320    0.7290 c3        1 MOL      0.698483
    144 C47        -5.2170   -3.5400    1.8170 c         1 MOL      0.277849
    145 O19        -4.6200   -2.6270    2.3670 o         1 MOL     -0.419630
    146 C48        -5.6430   -3.5750   -0.6550 c3        1 MOL     -0.315699
    147 H67        -6.1440   -1.1550    0.3520 hn        1 MOL      0.275758
    148 H68        -6.9810   -3.9050    0.9180 h1        1 MOL     -0.093891
    149 H69        -4.9390   -2.7670   -0.8700 hc        1 MOL      0.078103
    150 H70        -5.1570   -4.5330   -0.7870 hc        1 MOL      0.078103
    151 H71        -6.5140   -3.6360   -1.2980 hc        1 MOL      0.078103
    152 N14        -4.9490   -4.8340    2.0100 n         1 MOL     -0.369641
    153 C49        -3.9930   -5.3010    2.9610 c3        1 MOL     -0.069605
    154 C50        -4.1310   -4.6410    4.3070 c         1 MOL      0.330889
    155 O20        -3.1470   -4.3770    4.9910 o         1 MOL     -0.479199
    156 C51        -2.5550   -5.1130    2.3570 c3        1 MOL      0.151860
    157 C52        -2.4700   -5.9010    1.0470 c3        1 MOL     -0.224603
    158 C53        -1.0120   -5.8870    0.4700 c         1 MOL      0.878156
    159 O21        -0.6870   -6.6050   -0.5340 o         1 MOL     -0.838443
    160 O22        -0.1440   -5.1180    0.8790 o         1 MOL     -0.838443
    161 H72        -5.4570   -5.4710    1.4150 hn        1 MOL      0.244618
    162 H73        -4.1600   -6.3760    3.0670 h1        1 MOL      0.073328
    163 H74        -1.8580   -5.4780    3.1150 hc        1 MOL      0.033286
    164 H75        -2.3510   -4.0430    2.2990 hc        1 MOL      0.033286
    165 H76        -3.0410   -5.5870    0.1840 hc        1 MOL      0.023408
    166 H77        -2.6730   -6.9650    1.1940 hc        1 MOL      0.023408
    167 N15        -5.3470   -4.3180    4.6940 n         1 MOL     -0.157596
    168 C54        -5.7320   -3.4440    5.8040 c3        1 MOL     -0.243916
    169 H78        -6.7280   -3.0430    5.6200 h1        1 MOL      0.109262
    170 H79        -5.7370   -4.0160    6.7320 h1        1 MOL      0.109262
    171 H80        -5.0190   -2.6230    5.8850 h1        1 MOL      0.109262
    172 H81        -6.0840   -4.7070    4.1290 hn        1 MOL      0.189821
    173 Ca1         1.5660   -5.3080   -1.0230 Ca        1 MOL      1.758744
    174 O23         1.6870   -7.7060   -2.4120 oh        1 MOL     -0.828247
    175 H82         2.2440   -8.4870   -2.4590 ho        1 MOL      0.410040
    176 H83         1.0110   -7.8510   -3.0640 ho        1 MOL      0.410040
    177 O24         1.9250   -4.8040   -3.7350 oh        1 MOL     -0.828247
    178 H84         2.7560   -5.2230   -3.9610 ho        1 MOL      0.410040
    179 H85         1.3720   -4.9540   -4.4920 ho        1 MOL      0.410040
    180 O25         4.1260   -5.6670   -1.4440 oh        1 MOL     -0.828247
    181 H86         4.2750   -6.6030   -1.3120 ho        1 MOL      0.410040
    182 H87         4.7830   -5.4070   -2.0870 ho        1 MOL      0.410040
    183 O26         2.5820   -7.1700    0.6210 oh        1 MOL     -0.828247
    184 H88         1.9490   -7.7760    1.0120 ho        1 MOL      0.410040
    185 H89         3.4230   -7.4140    1.0090 ho        1 MOL      0.410040
@<TRIPOS>BOND
     1    1    2 1   
     2    1    4 1   
     3    1    5 1   
     4    1    6 1   
     5    2    3 2   
     6    2    7 1   
     7    7    8 1   
     8    7   15 1   
     9    8    9 1   
    10    8   11 1   
    11    8   16 1   
    12    9   10 2   
    13    9   19 1   
    14   11   12 1   
    15   11   17 1   
    16   11   18 1   
    17   12   13 1   
    18   12   14 1   
    19   19   20 1   
    20   19   28 1   
    21   20   21 1   
    22   20   23 1   
    23   20   29 1   
    24   21   22 2   
    25   21   41 1   
    26   23   24 1   
    27   23   30 1   
    28   23   31 1   
    29   24   25 1   
    30   24   32 1   
    31   24   33 1   
    32   25   26 1   
    33   25   34 1   
    34   25   35 1   
    35   26   27 1   
    36   26   36 1   
    37   26   37 1   
    38   27   38 1   
    39   27   39 1   
    40   27   40 1   
    41   41   42 1   
    42   41   49 1   
    43   42   43 1   
    44   42   45 1   
    45   42   50 1   
    46   43   44 2   
    47   43   53 1   
    48   45   46 1   
    49   45   51 1   
    50   45   52 1   
    51   46   47 1   
    52   46   48 1   
    53   53   54 1   
    54   53   57 1   
    55   54   55 1   
    56   54   58 1   
    57   54   59 1   
    58   55   56 2   
    59   55   60 1   
    60   60   61 1   
    61   60   68 1   
    62   61   62 1   
    63   61   64 1   
    64   61   69 1   
    65   62   63 2   
    66   62   74 1   
    67   64   65 1   
    68   64   70 1   
    69   64   71 1   
    70   65   66 1   
    71   65   67 2   
    72   66   72 1   
    73   66   73 1   
    74   74   75 1   
    75   74   78 1   
    76   75   76 1   
    77   75   79 1   
    78   75   80 1   
    79   76   77 2   
    80   76   81 1   
    81   81   82 1   
    82   81   93 1   
    83   82   83 1   
    84   82   85 1   
    85   82   94 1   
    86   83   84 2   
    87   83  102 1   
    88   85   86 1   
    89   85   95 1   
    90   85   96 1   
    91   86   87 ar  
    92   86   88 ar  
    93   87   89 ar  
    94   87   97 1   
    95   88   90 ar  
    96   88   98 1   
    97   89   91 ar  
    98   89   99 1   
    99   90   91 ar  
   100   90  100 1   
   101   91   92 1   
   102   92  101 1   
   103  102  103 1   
   104  102  110 1   
   105  103  104 1   
   106  103  106 1   
   107  103  111 1   
   108  104  105 2   
   109  104  121 1   
   110  106  107 1   
   111  106  108 1   
   112  106  112 1   
   113  107  109 1   
   114  107  113 1   
   115  107  114 1   
   116  108  115 1   
   117  108  116 1   
   118  108  117 1   
   119  109  118 1   
   120  109  119 1   
   121  109  120 1   
   122  121  122 1   
   123  121  127 1   
   124  122  123 1   
   125  122  125 1   
   126  122  128 1   
   127  123  124 2   
   128  123  132 1   
   129  125  126 1   
   130  125  129 1   
   131  125  130 1   
   132  126  131 1   
   133  132  133 1   
   134  132  137 1   
   135  133  134 1   
   136  133  136 1   
   137  133  138 1   
   138  134  135 2   
   139  134  142 1   
   140  136  139 1   
   141  136  140 1   
   142  136  141 1   
   143  142  143 1   
   144  142  147 1   
   145  143  144 1   
   146  143  146 1   
   147  143  148 1   
   148  144  145 2   
   149  144  152 1   
   150  146  149 1   
   151  146  150 1   
   152  146  151 1   
   153  152  153 1   
   154  152  161 1   
   155  153  154 1   
   156  153  156 1   
   157  153  162 1   
   158  154  155 2   
   159  154  167 1   
   160  156  157 1   
   161  156  163 1   
   162  156  164 1   
   163  157  158 1   
   164  157  165 1   
   165  157  166 1   
   166  158  159 1   
   167  158  160 1   
   168  167  168 1   
   169  167  172 1   
   170  168  169 1   
   171  168  170 1   
   172  168  171 1   
   173  174  175 1   
   174  174  176 1   
   175  177  178 1   
   176  177  179 1   
   177  180  181 1   
   178  180  182 1   
   179  183  184 1   
   180  183  185 1   
@<TRIPOS>SUBSTRUCTURE
     1 MOL         1 TEMP              0 ****  ****    0 ROOT
