@<TRIPOS>MOLECULE
MOL
  192   187     1     0     0
SMALL
resp


@<TRIPOS>ATOM
      1 C1          4.2720    4.3230   -3.4800 c3        1 MOL     -0.387925
      2 C2          4.9980    3.4770   -2.3910 c         1 MOL      0.722609
      3 O1          4.4780    3.1280   -1.3400 o         1 MOL     -0.582618
      4 H1          3.6730    3.6650   -4.1100 hc        1 MOL      0.104663
      5 H2          3.6210    5.0540   -3.0000 hc        1 MOL      0.104663
      6 H3          5.0110    4.8400   -4.0930 hc        1 MOL      0.104663
      7 N1          6.2430    3.0210   -2.6930 n         1 MOL     -0.672837
      8 C3          6.9470    1.9170   -1.9960 c3        1 MOL      0.306678
      9 C4          6.0080    0.7370   -1.7260 c         1 MOL      0.177078
     10 O2          5.7450    0.3770   -0.6140 o         1 MOL     -0.414396
     11 C5          7.7760    2.4680   -0.8330 c3        1 MOL     -0.180945
     12 C6          7.0790    3.3500    0.2150 c         1 MOL      0.766820
     13 O3          6.4650    2.7580    1.1650 o         1 MOL     -0.728643
     14 O4          7.1440    4.5910    0.1900 o         1 MOL     -0.728643
     15 H4          6.5180    3.1440   -3.6640 hn        1 MOL      0.305349
     16 H5          7.6490    1.4780   -2.7090 h1        1 MOL      0.021399
     17 H6          8.5220    3.1150   -1.3000 hc        1 MOL      0.030216
     18 H7          8.3670    1.7120   -0.3250 hc        1 MOL      0.030216
     19 N2          5.5470    0.1210   -2.8190 n         1 MOL     -0.309618
     20 C7          4.7950   -1.1410   -2.9430 c3        1 MOL     -0.182559
     21 C8          5.6210   -2.3770   -2.4590 c         1 MOL      0.573826
     22 O5          5.6350   -3.3510   -3.1420 o         1 MOL     -0.544243
     23 C9          3.4000   -1.0490   -2.3380 c3        1 MOL      0.547487
     24 C10         2.4450   -2.2230   -2.7560 c3        1 MOL     -0.271308
     25 C11         2.6120    0.2500   -2.7510 c3        1 MOL     -0.377541
     26 C12         2.2170   -2.5920   -4.2290 c3        1 MOL     -0.120774
     27 H8          5.8310    0.6050   -3.6490 hn        1 MOL      0.247889
     28 H9          4.5280   -1.1470   -3.9960 h1        1 MOL      0.077005
     29 H10         3.5020   -1.0420   -1.2590 hc        1 MOL     -0.276304
     30 H11         1.4930   -1.9430   -2.3170 hc        1 MOL      0.107195
     31 H12         2.8810   -3.0820   -2.2470 hc        1 MOL      0.107195
     32 H13         2.6930    0.3000   -3.8360 hc        1 MOL      0.069930
     33 H14         1.5630    0.1900   -2.4500 hc        1 MOL      0.069930
     34 H15         3.1470    1.1050   -2.3360 hc        1 MOL      0.069930
     35 H16         3.1780   -2.7020   -4.7380 hc        1 MOL      0.025667
     36 H17         1.7940   -3.5900   -4.3500 hc        1 MOL      0.025667
     37 H18         1.5960   -1.8870   -4.7680 hc        1 MOL      0.025667
     38 N3          6.3360   -2.3120   -1.3280 n         1 MOL     -0.354146
     39 C13         7.1390   -3.3640   -0.6330 c3        1 MOL     -0.006389
     40 C14         6.3610   -4.7210   -0.3410 c         1 MOL      0.561934
     41 O6          6.8590   -5.8190   -0.6620 o         1 MOL     -0.598105
     42 C15         7.7670   -2.7680    0.6630 c3        1 MOL     -0.136459
     43 C16         8.5080   -1.5140    0.4810 c         1 MOL      0.850974
     44 O7          9.4340   -1.6110   -0.3280 o         1 MOL     -0.750414
     45 O8          8.4080   -0.5690    1.2930 o         1 MOL     -0.750414
     46 H19         6.1670   -1.4910   -0.7580 hn        1 MOL      0.280633
     47 H20         7.9900   -3.6590   -1.2500 h1        1 MOL      0.064595
     48 H21         8.3540   -3.5380    1.1680 hc        1 MOL      0.021272
     49 H22         6.9410   -2.5130    1.3200 hc        1 MOL      0.021272
     50 N4          5.1170   -4.7820    0.1540 n         1 MOL     -0.510281
     51 C17         4.2730   -3.7210    0.6420 c3        1 MOL      0.079329
     52 C18         4.4960   -3.5180    2.1200 c         1 MOL      0.527838
     53 O9          5.3460   -4.0590    2.7550 o         1 MOL     -0.544169
     54 H23         4.7710   -5.7300    0.1850 hn        1 MOL      0.301123
     55 H24         3.2530   -4.0790    0.4730 h1        1 MOL      0.064359
     56 H25         4.5020   -2.7450    0.2190 h1        1 MOL      0.064359
     57 N5          3.6260   -2.8460    2.8760 n         1 MOL     -0.361092
     58 C19         2.2510   -2.3280    2.6120 c3        1 MOL      0.025761
     59 C20         2.2810   -1.1950    1.5250 c         1 MOL      0.555711
     60 O10         3.3810   -0.6610    1.1980 o         1 MOL     -0.635135
     61 C21         1.5580   -1.7920    3.8920 c3        1 MOL     -0.307349
     62 C22         2.0840   -2.5040    5.1560 c         1 MOL      0.734233
     63 O11         1.7950   -3.6790    5.2470 o         1 MOL     -0.716648
     64 O12         2.7260   -1.8050    6.0090 o         1 MOL     -0.716648
     65 H26         3.8940   -2.7630    3.8450 hn        1 MOL      0.260748
     66 H27         1.6560   -3.1050    2.1310 h1        1 MOL      0.059667
     67 H28         0.4800   -1.8810    3.7960 hc        1 MOL      0.086270
     68 H29         1.7380   -0.7200    3.9960 hc        1 MOL      0.086270
     69 N6          1.1920   -0.6630    1.0060 n         1 MOL     -0.547894
     70 C23        -0.2160   -1.0780    1.1250 c3        1 MOL     -0.033650
     71 C24        -0.4900   -2.4460    0.4800 c         1 MOL      0.653882
     72 O13         0.4150   -3.1170   -0.0090 o         1 MOL     -0.580025
     73 H30         1.3460    0.0180    0.2650 hn        1 MOL      0.490595
     74 H31        -0.8180   -0.3040    0.6590 h1        1 MOL      0.062456
     75 H32        -0.4270   -1.3060    2.1770 h1        1 MOL      0.062456
     76 N7         -1.6930   -2.9730    0.5680 n         1 MOL     -0.493985
     77 C25        -2.1530   -4.2450   -0.0280 c3        1 MOL      0.214324
     78 C26        -2.7280   -4.0330   -1.4330 c         1 MOL      0.294223
     79 O14        -2.8240   -4.9730   -2.2240 o         1 MOL     -0.505866
     80 C27        -2.9080   -4.9640    1.0180 c3        1 MOL     -0.114255
     81 C28        -4.1080   -4.1950    1.6000 c3        1 MOL     -0.332027
     82 C29        -5.2390   -3.9390    0.5830 c         1 MOL      0.470230
     83 N8         -5.9170   -4.9720    0.1140 n         1 MOL     -0.667686
     84 O15        -5.7210   -2.8300    0.3600 o         1 MOL     -0.469936
     85 H33        -2.4290   -2.3650    0.8860 hn        1 MOL      0.237761
     86 H34        -1.2780   -4.8330   -0.2930 h1        1 MOL      0.092971
     87 H35        -2.1920   -5.1420    1.8250 hc        1 MOL      0.064907
     88 H36        -3.1630   -5.9670    0.6670 hc        1 MOL      0.064907
     89 H37        -3.8270   -3.3180    2.1900 hc        1 MOL      0.152171
     90 H38        -4.5230   -4.7650    2.4270 hc        1 MOL      0.152171
     91 H39        -5.6840   -5.9130    0.3850 hn        1 MOL      0.341714
     92 H40        -6.6430   -4.8090   -0.5720 hn        1 MOL      0.341714
     93 N9         -3.3350   -2.8590   -1.7050 n         1 MOL     -0.051839
     94 C30        -3.7370   -2.3390   -3.0360 c3        1 MOL     -0.260902
     95 C31        -5.0590   -1.4930   -3.0690 c         1 MOL      0.396204
     96 O16        -5.2780   -0.6550   -3.9590 o         1 MOL     -0.513222
     97 C32        -2.6050   -1.4900   -3.5760 c3        1 MOL      0.349143
     98 C33        -1.3460   -2.2850   -3.9780 c3        1 MOL     -0.302280
     99 C34        -2.2390   -0.4280   -2.5200 c3        1 MOL     -0.302280
    100 H41        -3.3450   -2.1310   -1.0070 hn        1 MOL      0.126910
    101 H42        -3.8660   -3.2050   -3.6910 h1        1 MOL      0.132160
    102 H43        -2.9710   -0.9500   -4.4460 hc        1 MOL     -0.037079
    103 H44        -1.6000   -3.2080   -4.5010 hc        1 MOL      0.071909
    104 H45        -0.7610   -1.6640   -4.6590 hc        1 MOL      0.071909
    105 H46        -0.7750   -2.6520   -3.1330 hc        1 MOL      0.071909
    106 H47        -1.6550   -0.9340   -1.7510 hc        1 MOL      0.071909
    107 H48        -1.6370    0.3220   -3.0410 hc        1 MOL      0.071909
    108 H49        -3.1720   -0.0080   -2.1590 hc        1 MOL      0.071909
    109 N10        -5.9950   -1.6450   -2.1050 n         1 MOL     -0.083613
    110 C35        -7.3770   -1.1110   -2.1470 c3        1 MOL     -0.258975
    111 C36        -7.4400    0.2470   -1.4900 c         1 MOL      0.646989
    112 O17        -8.4700    0.9150   -1.6260 o         1 MOL     -0.571616
    113 C37        -8.2600   -2.1600   -1.5020 c3        1 MOL     -0.123028
    114 C38        -8.3620   -3.5140   -2.2200 c         1 MOL      0.529177
    115 N11        -8.4600   -3.5280   -3.4890 n         1 MOL     -0.673749
    116 O18        -8.1420   -4.5290   -1.5730 o         1 MOL     -0.535705
    117 H50        -5.7480   -2.1220   -1.2490 hn        1 MOL      0.163599
    118 H51        -7.5440   -0.9500   -3.2110 h1        1 MOL      0.117040
    119 H52        -9.2790   -1.7850   -1.3790 hc        1 MOL      0.067934
    120 H53        -8.0160   -2.3360   -0.4530 hc        1 MOL      0.067934
    121 H54        -8.7700   -2.6480   -3.8920 hn        1 MOL      0.356454
    122 H55        -8.4570   -4.4100   -3.9830 hn        1 MOL      0.356454
    123 N12        -6.4460    0.7160   -0.7270 n         1 MOL     -0.491499
    124 C39        -6.3860    2.0100    0.0530 c3        1 MOL      0.181859
    125 C40        -4.9680    2.6590    0.2850 c         1 MOL      0.444786
    126 O19        -3.9830    1.9640    0.2210 o         1 MOL     -0.374271
    127 C41        -7.1190    1.8300    1.4190 c3        1 MOL      0.021873
    128 C42        -6.6500    0.5860    2.2370 ca        1 MOL      0.118870
    129 C43        -7.5220   -0.5630    2.2260 ca        1 MOL     -0.333199
    130 C44        -5.4170    0.4890    2.8840 ca        1 MOL     -0.333199
    131 C45        -7.1610   -1.6740    3.0450 ca        1 MOL     -0.069916
    132 C46        -5.1090   -0.6040    3.6600 ca        1 MOL     -0.069916
    133 C47        -5.9470   -1.7430    3.7290 ca        1 MOL      0.174215
    134 O20        -5.6920   -2.8440    4.5140 oh        1 MOL     -0.407321
    135 H56        -5.6120    0.1520   -0.7140 hn        1 MOL      0.270427
    136 H57        -7.0220    2.7080   -0.5010 h1        1 MOL      0.032596
    137 H58        -8.1870    1.7930    1.2040 hc        1 MOL      0.004585
    138 H59        -6.9290    2.7220    2.0040 hc        1 MOL      0.004585
    139 H60        -8.4650   -0.6080    1.7100 ha        1 MOL      0.182999
    140 H61        -4.7760    1.3590    2.9550 ha        1 MOL      0.182999
    141 H62        -7.9490   -2.3950    3.2070 ha        1 MOL      0.121005
    142 H63        -4.2220   -0.4590    4.2530 ha        1 MOL      0.121005
    143 H64        -6.4080   -3.4150    4.2470 ho        1 MOL      0.280648
    144 N13        -4.9570    3.9470    0.6240 n         1 MOL     -0.693352
    145 C48        -3.8840    4.9160    1.0450 c3        1 MOL      0.368270
    146 C49        -2.7650    5.0760    0.0210 c         1 MOL      0.206596
    147 O21        -2.1740    6.1720   -0.0790 o         1 MOL     -0.520571
    148 C50        -3.2330    4.4630    2.3670 c3        1 MOL     -0.141884
    149 C51        -4.2200    4.5660    3.5670 c3        1 MOL     -0.367533
    150 C52        -3.6320    4.8490    4.9320 c         1 MOL      0.779501
    151 O22        -2.6620    4.1360    5.3450 o         1 MOL     -0.738042
    152 O23        -4.1310    5.6360    5.6970 o         1 MOL     -0.738042
    153 H65        -5.8690    4.3670    0.6630 hn        1 MOL      0.323480
    154 H66        -4.2800    5.9190    1.2360 h1        1 MOL      0.024399
    155 H67        -2.3070    5.0010    2.5400 hc        1 MOL      0.105020
    156 H68        -2.9510    3.4300    2.1700 hc        1 MOL      0.105020
    157 H69        -4.7450    3.6090    3.6940 hc        1 MOL      0.082663
    158 H70        -4.9310    5.3600    3.3520 hc        1 MOL      0.082663
    159 N14        -2.3510    4.1610   -0.8700 n         1 MOL     -0.034783
    160 C53        -1.2220    4.4410   -1.7660 c3        1 MOL     -0.245954
    161 C54        -1.6020    5.2460   -3.0110 c         1 MOL      0.532692
    162 O24        -0.6300    5.6560   -3.6340 o         1 MOL     -0.556172
    163 C55        -0.6050    3.1140   -2.1910 c3        1 MOL     -0.103780
    164 C56        -0.2850    2.1560   -1.0650 c3        1 MOL      0.397414
    165 C57         0.9160    2.5710   -0.2840 c         1 MOL      0.507565
    166 O25         0.8250    3.5380    0.5470 o         1 MOL     -0.636461
    167 O26         1.9450    1.8570   -0.2170 o         1 MOL     -0.636461
    168 H71        -2.7510    3.2320   -0.8110 hn        1 MOL      0.104031
    169 H72        -0.4650    5.0370   -1.2490 h1        1 MOL      0.205339
    170 H73         0.2880    3.2810   -2.7990 hc        1 MOL      0.036786
    171 H74        -1.2460    2.6170   -2.9250 hc        1 MOL      0.036786
    172 H75        -0.0910    1.1350   -1.3990 hc        1 MOL     -0.152371
    173 H76        -1.0960    2.1040   -0.3340 hc        1 MOL     -0.152371
    174 N15        -2.8520    5.5160   -3.3690 n         1 MOL     -0.268307
    175 C58        -3.3480    6.4190   -4.4310 c3        1 MOL     -0.065061
    176 H77        -3.9730    5.8550   -5.1230 h1        1 MOL      0.060374
    177 H78        -3.9360    7.2200   -3.9820 h1        1 MOL      0.060374
    178 H79        -2.5030    6.8460   -4.9700 h1        1 MOL      0.060374
    179 H80        -3.4550    5.1430   -2.6520 hn        1 MOL      0.186133
    180 Ca1         4.1540    1.8070    1.1150 Ca        1 MOL      1.795393
    181 O27         1.9160    2.1600    2.6350 oh        1 MOL     -0.822027
    182 H81         1.3520    2.6540    2.0370 ho        1 MOL      0.391805
    183 H82         1.7310    2.5370    3.5040 ho        1 MOL      0.391805
    184 O28         3.6240    4.4120    1.1220 oh        1 MOL     -0.822027
    185 H83         2.7450    4.6000    0.8080 ho        1 MOL      0.391805
    186 H84         4.1880    5.0400    0.6630 ho        1 MOL      0.391805
    187 O29         5.8230    0.1370    2.4990 oh        1 MOL     -0.822027
    188 H85         6.7330   -0.0360    2.2990 ho        1 MOL      0.391805
    189 H86         5.4900   -0.6900    2.8400 ho        1 MOL      0.391805
    190 O30         4.6540    2.9060    3.4280 oh        1 MOL     -0.822027
    191 H87         4.8160    2.5020    4.2780 ho        1 MOL      0.391805
    192 H88         5.2150    3.6810    3.4250 ho        1 MOL      0.391805
@<TRIPOS>BOND
     1    1    2 1   
     2    1    4 1   
     3    1    5 1   
     4    1    6 1   
     5    2    3 2   
     6    2    7 1   
     7    7    8 1   
     8    7   15 1   
     9    8    9 1   
    10    8   11 1   
    11    8   16 1   
    12    9   10 2   
    13    9   19 1   
    14   11   12 1   
    15   11   17 1   
    16   11   18 1   
    17   12   13 1   
    18   12   14 1   
    19   19   20 1   
    20   19   27 1   
    21   20   21 1   
    22   20   23 1   
    23   20   28 1   
    24   21   22 2   
    25   21   38 1   
    26   23   24 1   
    27   23   25 1   
    28   23   29 1   
    29   24   26 1   
    30   24   30 1   
    31   24   31 1   
    32   25   32 1   
    33   25   33 1   
    34   25   34 1   
    35   26   35 1   
    36   26   36 1   
    37   26   37 1   
    38   38   39 1   
    39   38   46 1   
    40   39   40 1   
    41   39   42 1   
    42   39   47 1   
    43   40   41 2   
    44   40   50 1   
    45   42   43 1   
    46   42   48 1   
    47   42   49 1   
    48   43   44 1   
    49   43   45 1   
    50   50   51 1   
    51   50   54 1   
    52   51   52 1   
    53   51   55 1   
    54   51   56 1   
    55   52   53 2   
    56   52   57 1   
    57   57   58 1   
    58   57   65 1   
    59   58   59 1   
    60   58   61 1   
    61   58   66 1   
    62   59   60 2   
    63   59   69 1   
    64   61   62 1   
    65   61   67 1   
    66   61   68 1   
    67   62   63 1   
    68   62   64 1   
    69   69   70 1   
    70   69   73 1   
    71   70   71 1   
    72   70   74 1   
    73   70   75 1   
    74   71   72 2   
    75   71   76 1   
    76   76   77 1   
    77   76   85 1   
    78   77   78 1   
    79   77   80 1   
    80   77   86 1   
    81   78   79 2   
    82   78   93 1   
    83   80   81 1   
    84   80   87 1   
    85   80   88 1   
    86   81   82 1   
    87   81   89 1   
    88   81   90 1   
    89   82   83 1   
    90   82   84 2   
    91   83   91 1   
    92   83   92 1   
    93   93   94 1   
    94   93  100 1   
    95   94   95 1   
    96   94   97 1   
    97   94  101 1   
    98   95   96 2   
    99   95  109 1   
   100   97   98 1   
   101   97   99 1   
   102   97  102 1   
   103   98  103 1   
   104   98  104 1   
   105   98  105 1   
   106   99  106 1   
   107   99  107 1   
   108   99  108 1   
   109  109  110 1   
   110  109  117 1   
   111  110  111 1   
   112  110  113 1   
   113  110  118 1   
   114  111  112 2   
   115  111  123 1   
   116  113  114 1   
   117  113  119 1   
   118  113  120 1   
   119  114  115 1   
   120  114  116 2   
   121  115  121 1   
   122  115  122 1   
   123  123  124 1   
   124  123  135 1   
   125  124  125 1   
   126  124  127 1   
   127  124  136 1   
   128  125  126 2   
   129  125  144 1   
   130  127  128 1   
   131  127  137 1   
   132  127  138 1   
   133  128  129 ar  
   134  128  130 ar  
   135  129  131 ar  
   136  129  139 1   
   137  130  132 ar  
   138  130  140 1   
   139  131  133 ar  
   140  131  141 1   
   141  132  133 ar  
   142  132  142 1   
   143  133  134 1   
   144  134  143 1   
   145  144  145 1   
   146  144  153 1   
   147  145  146 1   
   148  145  148 1   
   149  145  154 1   
   150  146  147 2   
   151  146  159 1   
   152  148  149 1   
   153  148  155 1   
   154  148  156 1   
   155  149  150 1   
   156  149  157 1   
   157  149  158 1   
   158  150  151 1   
   159  150  152 1   
   160  159  160 1   
   161  159  168 1   
   162  160  161 1   
   163  160  163 1   
   164  160  169 1   
   165  161  162 2   
   166  161  174 1   
   167  163  164 1   
   168  163  170 1   
   169  163  171 1   
   170  164  165 1   
   171  164  172 1   
   172  164  173 1   
   173  165  166 1   
   174  165  167 1   
   175  174  175 1   
   176  174  179 1   
   177  175  176 1   
   178  175  177 1   
   179  175  178 1   
   180  181  182 1   
   181  181  183 1   
   182  184  185 1   
   183  184  186 1   
   184  187  188 1   
   185  187  189 1   
   186  190  191 1   
   187  190  192 1   
@<TRIPOS>SUBSTRUCTURE
     1 MOL         1 TEMP              0 ****  ****    0 ROOT
