@<TRIPOS>MOLECULE
MOL
  201   193     1     0     0
SMALL
resp


@<TRIPOS>ATOM
      1 C1         -3.6950   -3.7750    1.9750 c3        1 MOL     -0.021630
      2 C2         -2.6130   -4.1440    0.9430 c         1 MOL      0.439536
      3 O1         -1.9760   -3.2630    0.3390 o         1 MOL     -0.463083
      4 H1         -4.2470   -2.9020    1.6260 hc        1 MOL     -0.004206
      5 H2         -4.3810   -4.6130    2.0980 hc        1 MOL     -0.004206
      6 H3         -3.2240   -3.5480    2.9320 hc        1 MOL     -0.004206
      7 N1         -2.4390   -5.4390    0.7260 n         1 MOL     -0.527009
      8 C3         -1.5360   -5.9150   -0.3120 c3        1 MOL     -0.045170
      9 C4         -0.0540   -5.4710   -0.1240 c         1 MOL      0.693947
     10 O2          0.6670   -5.0230   -0.9620 o         1 MOL     -0.556717
     11 C5         -2.0240   -5.6230   -1.7590 c3        1 MOL     -0.309567
     12 C6         -3.5920   -5.7200   -1.8440 c         1 MOL      0.805391
     13 O3         -4.1950   -4.6650   -2.2100 o         1 MOL     -0.714805
     14 O4         -4.0880   -6.8450   -1.7290 o         1 MOL     -0.714805
     15 H4         -2.8800   -6.0910    1.3570 hn        1 MOL      0.340018
     16 H5         -1.5480   -7.0050   -0.2600 h1        1 MOL      0.086725
     17 H6         -1.6870   -6.3870   -2.4520 hc        1 MOL      0.108014
     18 H7         -1.6570   -4.6480   -2.0700 hc        1 MOL      0.108014
     19 N2          0.4890   -5.8760    1.0100 n         1 MOL     -0.446975
     20 C7          1.8090   -5.3860    1.5030 c3        1 MOL     -0.033061
     21 C8          3.0400   -6.1450    1.0130 c         1 MOL      0.511856
     22 O5          2.9540   -7.3160    0.7570 o         1 MOL     -0.581702
     23 C9          1.8230   -5.1660    2.9980 c3        1 MOL      0.042721
     24 C10         1.7600   -6.4240    3.8970 c3        1 MOL      0.062473
     25 C11         0.7520   -4.1070    3.4260 c3        1 MOL     -0.133928
     26 C12         2.2300   -6.2940    5.3420 c3        1 MOL     -0.291031
     27 H8          0.0690   -6.5940    1.5780 hn        1 MOL      0.244638
     28 H9          1.9010   -4.3810    1.0780 h1        1 MOL      0.122875
     29 H10         2.7330   -4.6580    3.3180 hc        1 MOL      0.051239
     30 H11         2.3060   -7.1980    3.3740 hc        1 MOL      0.004562
     31 H12         0.7700   -6.8730    3.8210 hc        1 MOL      0.004562
     32 H13         1.1010   -3.8740    4.4300 hc        1 MOL      0.027800
     33 H14         0.7870   -3.1870    2.8470 hc        1 MOL      0.027800
     34 H15        -0.2600   -4.5200    3.3910 hc        1 MOL      0.027800
     35 H16         2.3000   -7.2330    5.9040 hc        1 MOL      0.068046
     36 H17         3.2430   -5.8900    5.3230 hc        1 MOL      0.068046
     37 H18         1.5760   -5.5530    5.8060 hc        1 MOL      0.068046
     38 N3          4.1590   -5.5130    0.8190 n         1 MOL     -0.299176
     39 C13         4.5160   -4.0880    0.9290 c3        1 MOL     -0.109783
     40 C14         4.1670   -3.2200   -0.3340 c         1 MOL      0.352818
     41 O6          4.1030   -1.9880   -0.2760 o         1 MOL     -0.489957
     42 C15         5.9750   -3.9890    1.3290 c3        1 MOL     -0.314487
     43 C16         6.9690   -4.6880    0.4070 c         1 MOL      0.755158
     44 O7          8.1780   -4.3770    0.4400 o         1 MOL     -0.698497
     45 O8          6.6050   -5.5770   -0.4690 o         1 MOL     -0.698497
     46 H19         4.9650   -6.0520    0.5350 hn        1 MOL      0.219080
     47 H20         4.0040   -3.5750    1.7340 h1        1 MOL      0.105650
     48 H21         6.0590   -4.6650    2.1770 hc        1 MOL      0.077790
     49 H22         6.2320   -2.9690    1.6330 hc        1 MOL      0.077790
     50 N4          3.9170   -3.8500   -1.5340 n         1 MOL     -0.153842
     51 C17         3.4060   -3.3030   -2.7460 c3        1 MOL     -0.233647
     52 C18         4.5600   -2.5820   -3.4580 c         1 MOL      0.461088
     53 O9          5.5710   -3.2210   -3.7890 o         1 MOL     -0.505552
     54 H23         3.9840   -4.8610   -1.5380 hn        1 MOL      0.275519
     55 H24         2.5740   -2.6620   -2.4580 h1        1 MOL      0.120103
     56 H25         3.0070   -4.0660   -3.4110 h1        1 MOL      0.120103
     57 N5          4.4150   -1.2200   -3.5870 n         1 MOL     -0.463222
     58 C19         5.6530   -0.4040   -3.9300 c3        1 MOL      0.199832
     59 C20         6.7040   -0.3640   -2.8250 c         1 MOL      0.240283
     60 O10         7.9010   -0.2420   -3.0420 o         1 MOL     -0.558458
     61 C21         5.2350    0.9850   -4.2480 c3        1 MOL     -0.312808
     62 C22         4.0130    1.4500   -3.3520 c         1 MOL      0.847886
     63 O11         2.9110    1.6180   -3.9080 o         1 MOL     -0.727438
     64 O12         4.2680    1.7420   -2.1840 o         1 MOL     -0.727438
     65 H26         3.5020   -0.8110   -3.4310 hn        1 MOL      0.278187
     66 H27         6.1340   -0.7810   -4.8340 h1        1 MOL      0.070679
     67 H28         5.0290    0.9610   -5.3130 hc        1 MOL      0.031105
     68 H29         6.0840    1.6300   -4.0050 hc        1 MOL      0.031105
     69 N6          6.2710   -0.5650   -1.5980 n         1 MOL      0.248079
     70 C23         7.0470   -0.4700   -0.3700 c3        1 MOL     -0.408075
     71 C24         7.2260    0.9090    0.2370 c         1 MOL      0.573332
     72 O13         7.8600    1.1210    1.2870 o         1 MOL     -0.581642
     73 H30         5.2760   -0.6230   -1.4270 hn        1 MOL      0.104188
     74 H31         8.0680   -0.8340   -0.5190 h1        1 MOL      0.157375
     75 H32         6.6630   -1.1470    0.3890 h1        1 MOL      0.157375
     76 N7          6.7120    1.9440   -0.4600 n         1 MOL     -0.235147
     77 C25         6.7500    3.3680   -0.2040 c3        1 MOL     -0.044408
     78 C26         6.3540    3.8550    1.2910 c         1 MOL      0.486692
     79 O14         6.6160    4.9690    1.6420 o         1 MOL     -0.502831
     80 C27         8.0610    3.9880   -0.7750 c3        1 MOL      0.019650
     81 C28         8.3850    3.4780   -2.2360 c3        1 MOL     -0.041932
     82 C29         9.4940    4.2940   -2.8630 c         1 MOL      0.536090
     83 N8         10.3560    3.8040   -3.7910 n         1 MOL     -0.753414
     84 O15         9.6570    5.4550   -2.5390 o         1 MOL     -0.546762
     85 H33         6.2400    1.7260   -1.3240 hn        1 MOL      0.128349
     86 H34         5.9430    3.7200   -0.8550 h1        1 MOL      0.135477
     87 H35         8.9100    3.6300   -0.1930 hc        1 MOL      0.015480
     88 H36         7.9580    5.0730   -0.8180 hc        1 MOL      0.015480
     89 H37         7.5050    3.4390   -2.8810 hc        1 MOL      0.046291
     90 H38         8.8750    2.5060   -2.1760 hc        1 MOL      0.046291
     91 H39        10.0780    2.9040   -4.1550 hn        1 MOL      0.343259
     92 H40        11.0310    4.4640   -4.1330 hn        1 MOL      0.343259
     93 N9          5.6460    3.0050    2.0390 n         1 MOL     -0.401142
     94 C30         5.0850    3.2800    3.3690 c3        1 MOL     -0.092361
     95 C31         3.5630    3.3960    3.4180 c         1 MOL      0.609669
     96 O16         2.9750    4.1600    4.1680 o         1 MOL     -0.577719
     97 C32         5.5690    2.2430    4.3840 c3        1 MOL      0.228174
     98 C33         5.0800    0.8180    4.1300 c3        1 MOL     -0.210033
     99 C34         7.1400    2.3260    4.5320 c3        1 MOL     -0.210033
    100 H41         5.4730    2.0860    1.6570 hn        1 MOL      0.240602
    101 H42         5.4570    4.2630    3.6950 h1        1 MOL      0.096080
    102 H43         5.1770    2.4980    5.3670 hc        1 MOL     -0.043638
    103 H44         5.5080    0.5550    3.1670 hc        1 MOL      0.049296
    104 H45         5.4510    0.1600    4.9190 hc        1 MOL      0.049296
    105 H46         4.0000    0.7560    4.0330 hc        1 MOL      0.049296
    106 H47         7.6580    1.6770    3.8230 hc        1 MOL      0.049296
    107 H48         7.4350    3.3750    4.5160 hc        1 MOL      0.049296
    108 H49         7.4770    2.0280    5.5330 hc        1 MOL      0.049296
    109 N10         2.8420    2.7070    2.5000 n         1 MOL     -0.340115
    110 C35         1.4020    2.7470    2.2380 c3        1 MOL      0.034780
    111 C36         1.0890    3.5310    0.9260 c         1 MOL      0.605090
    112 O17         1.9850    3.8030    0.1010 o         1 MOL     -0.518065
    113 C37         0.9300    1.2910    2.2420 c3        1 MOL     -0.181563
    114 C38         1.1340    0.4740    3.4960 c         1 MOL      0.649410
    115 N11         1.8540   -0.6310    3.3290 n         1 MOL     -0.789046
    116 O18         0.7380    0.8060    4.5800 o         1 MOL     -0.555165
    117 H50         3.2940    2.1340    1.8080 hn        1 MOL      0.221490
    118 H51         0.9870    3.2090    3.1340 h1        1 MOL      0.064669
    119 H52         1.3280    0.6970    1.4200 hc        1 MOL      0.070020
    120 H53        -0.1420    1.2740    2.0280 hc        1 MOL      0.070020
    121 H54         2.3030   -0.8090    2.4470 hn        1 MOL      0.350600
    122 H55         2.0070   -1.1950    4.1570 hn        1 MOL      0.350600
    123 N12        -0.2080    3.8310    0.7760 n         1 MOL     -0.529125
    124 C39        -0.8880    4.5070   -0.2950 c3        1 MOL      0.106770
    125 C40        -2.3820    4.7430    0.0370 c         1 MOL      0.464637
    126 O19        -2.9340    3.9490    0.8070 o         1 MOL     -0.490488
    127 C41        -0.7940    3.7680   -1.6220 c3        1 MOL     -0.276886
    128 C42        -1.3800    2.3520   -1.7040 ca        1 MOL      0.103094
    129 C43        -0.6040    1.2440   -1.3600 ca        1 MOL     -0.102292
    130 C44        -2.7360    2.1590   -2.1560 ca        1 MOL     -0.102292
    131 C45        -1.1940   -0.0320   -1.2620 ca        1 MOL     -0.313711
    132 C46        -3.2850    0.9120   -2.1350 ca        1 MOL     -0.313711
    133 C47        -2.5470   -0.1730   -1.6380 ca        1 MOL      0.339885
    134 O20        -3.1480   -1.2960   -1.2410 oh        1 MOL     -0.415827
    135 H56        -0.8160    3.4510    1.4930 hn        1 MOL      0.286310
    136 H57        -0.5100    5.5320   -0.3630 h1        1 MOL      0.080704
    137 H58         0.2630    3.6690   -1.8660 hc        1 MOL      0.106422
    138 H59        -1.2550    4.3840   -2.3920 hc        1 MOL      0.106422
    139 H60         0.4240    1.4640   -1.1180 ha        1 MOL      0.130748
    140 H61        -3.3470    3.0240   -2.3810 ha        1 MOL      0.130748
    141 H62        -0.6740   -0.8650   -0.8010 ha        1 MOL      0.173369
    142 H63        -4.3370    0.7600   -2.3220 ha        1 MOL      0.173369
    143 H64        -2.5040   -1.8240   -0.7550 ho        1 MOL      0.323225
    144 N13        -2.9670    5.8840   -0.4470 n         1 MOL     -0.492920
    145 C48        -4.3590    6.2110   -0.3060 c3        1 MOL      0.339313
    146 C49        -5.1510    5.8040   -1.6200 c         1 MOL      0.467951
    147 O21        -5.1270    6.5280   -2.6090 o         1 MOL     -0.547874
    148 C50        -4.4130    7.7200    0.0180 c3        1 MOL     -0.121825
    149 C51        -5.8950    8.0680    0.4900 c3        1 MOL     -0.101671
    150 C52        -6.1360    9.4610    1.1080 c         1 MOL      0.660324
    151 O22        -5.5670    9.7150    2.2270 o         1 MOL     -0.681936
    152 O23        -7.0070   10.2140    0.5770 o         1 MOL     -0.681936
    153 H65        -2.3260    6.4590   -0.9840 hn        1 MOL      0.280754
    154 H66        -4.7950    5.7350    0.5670 h1        1 MOL     -0.030695
    155 H67        -4.1540    8.2700   -0.8840 hc        1 MOL      0.028539
    156 H68        -3.7150    7.9720    0.8140 hc        1 MOL      0.028539
    157 H69        -6.2590    7.3500    1.2290 hc        1 MOL      0.027258
    158 H70        -6.5570    8.1560   -0.3750 hc        1 MOL      0.027258
    159 N14        -5.7770    4.6460   -1.7050 n         1 MOL     -0.461970
    160 C53        -5.9000    3.5900   -0.7190 c3        1 MOL     -0.032635
    161 C54        -6.5900    3.9640    0.6310 c         1 MOL      0.474886
    162 O24        -7.6910    4.5290    0.5430 o         1 MOL     -0.541231
    163 C55        -6.7580    2.4920   -1.4090 c3        1 MOL     -0.079577
    164 C56        -6.7350    1.1100   -0.6740 c3        1 MOL     -0.072651
    165 C57        -7.5200   -0.0650   -1.3620 c         1 MOL      0.456016
    166 O25        -7.8690   -1.0040   -0.5450 o         1 MOL     -0.588499
    167 O26        -7.5610   -0.1800   -2.5860 o         1 MOL     -0.588499
    168 H71        -6.2480    4.5520   -2.5940 hn        1 MOL      0.304458
    169 H72        -4.9000    3.2080   -0.5110 h1        1 MOL      0.009442
    170 H73        -6.4510    2.2940   -2.4320 hc        1 MOL      0.068805
    171 H74        -7.8010    2.8250   -1.4240 hc        1 MOL      0.068805
    172 H75        -6.9040    1.2670    0.3940 hc        1 MOL      0.000251
    173 H76        -5.7080    0.7690   -0.5690 hc        1 MOL      0.000251
    174 N15        -5.9380    3.6050    1.7720 n         1 MOL     -0.098250
    175 C58        -6.3500    3.6830    3.1870 c3        1 MOL     -0.216420
    176 H77        -7.2040    4.3540    3.2800 h1        1 MOL      0.091072
    177 H78        -6.6280    2.6910    3.5400 h1        1 MOL      0.091072
    178 H79        -5.5230    4.0640    3.7860 h1        1 MOL      0.091072
    179 H80        -4.9720    3.3080    1.6560 hn        1 MOL      0.199124
    180 Ca1        -7.9580   -3.5490   -0.1520 Ca        1 MOL      1.737151
    181 O27        -8.0730   -2.8220   -2.6330 oh        1 MOL     -0.846429
    182 H81        -7.8200   -3.0450   -3.5320 ho        1 MOL      0.398996
    183 H82        -8.0280   -1.8610   -2.6070 ho        1 MOL      0.398996
    184 O28        -6.6940   -5.6730   -0.9830 oh        1 MOL     -0.846429
    185 O29        -9.3210   -5.1650    1.5520 oh        1 MOL     -0.846429
    186 H83        -5.8090   -5.6520   -1.3390 ho        1 MOL      0.398996
    187 H84       -10.0140   -5.5760    1.0330 ho        1 MOL      0.398996
    188 H85        -6.9260   -6.5990   -0.9500 ho        1 MOL      0.398996
    189 H86        -9.5160   -5.4030    2.4590 ho        1 MOL      0.398996
    190 O30        -9.5860   -5.1170   -1.5290 oh        1 MOL     -0.846429
    191 H87       -10.2370   -5.6090   -1.0150 ho        1 MOL      0.398996
    192 H88        -9.7700   -5.3660   -2.4330 ho        1 MOL      0.398996
    193 O31       -10.4810   -2.1890   -0.1260 oh        1 MOL     -0.846429
    194 H89       -10.3720   -1.9370   -1.0440 ho        1 MOL      0.398996
    195 H90       -10.6750   -1.3700    0.3270 ho        1 MOL      0.398996
    196 O32        -5.4430   -2.9720   -0.8240 oh        1 MOL     -0.846429
    197 H91        -4.9310   -2.1580   -0.9190 ho        1 MOL      0.398996
    198 H92        -4.9140   -3.6360   -1.2610 ho        1 MOL      0.398996
    199 O33        -8.2950   -2.0630    2.2810 oh        1 MOL     -0.846429
    200 H93        -8.4710   -1.1320    2.3200 ho        1 MOL      0.398996
    201 H94        -8.4250   -2.3690    3.1820 ho        1 MOL      0.398996
@<TRIPOS>BOND
     1    1    2 1   
     2    1    4 1   
     3    1    5 1   
     4    1    6 1   
     5    2    3 2   
     6    2    7 1   
     7    7    8 1   
     8    7   15 1   
     9    8    9 1   
    10    8   11 1   
    11    8   16 1   
    12    9   10 2   
    13    9   19 1   
    14   11   12 1   
    15   11   17 1   
    16   11   18 1   
    17   12   13 1   
    18   12   14 1   
    19   19   20 1   
    20   19   27 1   
    21   20   21 1   
    22   20   23 1   
    23   20   28 1   
    24   21   22 2   
    25   21   38 1   
    26   23   24 1   
    27   23   25 1   
    28   23   29 1   
    29   24   26 1   
    30   24   30 1   
    31   24   31 1   
    32   25   32 1   
    33   25   33 1   
    34   25   34 1   
    35   26   35 1   
    36   26   36 1   
    37   26   37 1   
    38   38   39 1   
    39   38   46 1   
    40   39   40 1   
    41   39   42 1   
    42   39   47 1   
    43   40   41 2   
    44   40   50 1   
    45   42   43 1   
    46   42   48 1   
    47   42   49 1   
    48   43   44 1   
    49   43   45 1   
    50   50   51 1   
    51   50   54 1   
    52   51   52 1   
    53   51   55 1   
    54   51   56 1   
    55   52   53 2   
    56   52   57 1   
    57   57   58 1   
    58   57   65 1   
    59   58   59 1   
    60   58   61 1   
    61   58   66 1   
    62   59   60 2   
    63   59   69 1   
    64   61   62 1   
    65   61   67 1   
    66   61   68 1   
    67   62   63 1   
    68   62   64 1   
    69   69   70 1   
    70   69   73 1   
    71   70   71 1   
    72   70   74 1   
    73   70   75 1   
    74   71   72 2   
    75   71   76 1   
    76   76   77 1   
    77   76   85 1   
    78   77   78 1   
    79   77   80 1   
    80   77   86 1   
    81   78   79 2   
    82   78   93 1   
    83   80   81 1   
    84   80   87 1   
    85   80   88 1   
    86   81   82 1   
    87   81   89 1   
    88   81   90 1   
    89   82   83 1   
    90   82   84 2   
    91   83   91 1   
    92   83   92 1   
    93   93   94 1   
    94   93  100 1   
    95   94   95 1   
    96   94   97 1   
    97   94  101 1   
    98   95   96 2   
    99   95  109 1   
   100   97   98 1   
   101   97   99 1   
   102   97  102 1   
   103   98  103 1   
   104   98  104 1   
   105   98  105 1   
   106   99  106 1   
   107   99  107 1   
   108   99  108 1   
   109  109  110 1   
   110  109  117 1   
   111  110  111 1   
   112  110  113 1   
   113  110  118 1   
   114  111  112 2   
   115  111  123 1   
   116  113  114 1   
   117  113  119 1   
   118  113  120 1   
   119  114  115 1   
   120  114  116 2   
   121  115  121 1   
   122  115  122 1   
   123  123  124 1   
   124  123  135 1   
   125  124  125 1   
   126  124  127 1   
   127  124  136 1   
   128  125  126 2   
   129  125  144 1   
   130  127  128 1   
   131  127  137 1   
   132  127  138 1   
   133  128  129 ar  
   134  128  130 ar  
   135  129  131 ar  
   136  129  139 1   
   137  130  132 ar  
   138  130  140 1   
   139  131  133 ar  
   140  131  141 1   
   141  132  133 ar  
   142  132  142 1   
   143  133  134 1   
   144  134  143 1   
   145  144  145 1   
   146  144  153 1   
   147  145  146 1   
   148  145  148 1   
   149  145  154 1   
   150  146  147 2   
   151  146  159 1   
   152  148  149 1   
   153  148  155 1   
   154  148  156 1   
   155  149  150 1   
   156  149  157 1   
   157  149  158 1   
   158  150  151 1   
   159  150  152 1   
   160  159  160 1   
   161  159  168 1   
   162  160  161 1   
   163  160  163 1   
   164  160  169 1   
   165  161  162 2   
   166  161  174 1   
   167  163  164 1   
   168  163  170 1   
   169  163  171 1   
   170  164  165 1   
   171  164  172 1   
   172  164  173 1   
   173  165  166 1   
   174  165  167 1   
   175  174  175 1   
   176  174  179 1   
   177  175  176 1   
   178  175  177 1   
   179  175  178 1   
   180  181  182 1   
   181  181  183 1   
   182  184  186 1   
   183  184  188 1   
   184  185  187 1   
   185  185  189 1   
   186  190  191 1   
   187  190  192 1   
   188  193  194 1   
   189  193  195 1   
   190  196  197 1   
   191  196  198 1   
   192  199  200 1   
   193  199  201 1   
@<TRIPOS>SUBSTRUCTURE
     1 MOL         1 TEMP              0 ****  ****    0 ROOT
