@<TRIPOS>MOLECULE
MOL
  186   183     1     0     0
SMALL
resp


@<TRIPOS>ATOM
      1 C1         11.8230    5.4180   -2.2210 c3        1 MOL     -0.318872
      2 C2         11.7400    4.2840   -1.2140 c         1 MOL      0.542022
      3 O1         12.6240    3.4440   -0.9590 o         1 MOL     -0.563556
      4 H1         12.5530    5.1670   -2.9900 hc        1 MOL      0.092182
      5 H2         10.8460    5.5660   -2.6830 hc        1 MOL      0.092182
      6 H3         12.1290    6.3330   -1.7150 hc        1 MOL      0.092182
      7 N1         10.7330    4.3080   -0.3970 n         1 MOL     -0.185588
      8 C3         10.2460    3.1860    0.4780 c3        1 MOL     -0.237175
      9 C4          8.9350    2.5750   -0.1850 c         1 MOL      0.689295
     10 O2          8.2610    3.3820   -0.9000 o         1 MOL     -0.694740
     11 C5         10.1090    3.6090    1.8840 c3        1 MOL     -0.069226
     12 C6          9.3620    4.9750    2.1210 c         1 MOL      0.710721
     13 O3          8.3240    5.1180    1.4390 o         1 MOL     -0.698281
     14 O4          9.8190    5.8460    2.8650 o         1 MOL     -0.698281
     15 H4         10.0800    5.0750   -0.4240 hn        1 MOL      0.201521
     16 H5         10.9660    2.3690    0.4660 h1        1 MOL      0.130218
     17 H6         11.1120    3.5960    2.3020 hc        1 MOL      0.047775
     18 H7          9.3940    2.9520    2.3740 hc        1 MOL      0.047775
     19 N2          8.7470    1.2390   -0.1540 n         1 MOL     -0.503519
     20 C7          7.5810    0.6480   -0.6720 c3        1 MOL      0.111109
     21 C8          6.2540    0.9500    0.1460 c         1 MOL      0.337816
     22 O5          6.3920    1.0840    1.3480 o         1 MOL     -0.400949
     23 C9          7.8370   -0.8670   -0.6390 c3        1 MOL     -0.086398
     24 C10         6.9670   -1.7160   -1.6500 c3        1 MOL     -0.189259
     25 C11         7.2210   -3.1950   -1.3840 c3        1 MOL      0.085473
     26 C12         6.5610   -4.0890   -2.4620 c3        1 MOL     -0.073487
     27 N3          6.6750   -5.4840   -2.1430 n4        1 MOL     -0.258904
     28 H8          9.2040    0.7420    0.5880 hn        1 MOL      0.300899
     29 H9          7.4380    0.8720   -1.7270 h1        1 MOL      0.069484
     30 H10         7.7140   -1.3570    0.3310 hc        1 MOL      0.061980
     31 H11         8.8570   -1.0710   -0.9690 hc        1 MOL      0.061980
     32 H12         7.3700   -1.5730   -2.6530 hc        1 MOL      0.072145
     33 H13         5.9220   -1.4460   -1.6180 hc        1 MOL      0.072145
     34 H14         6.7830   -3.4760   -0.4290 hc        1 MOL      0.024586
     35 H15         8.2500   -3.5130   -1.1740 hc        1 MOL      0.024586
     36 H16         7.0230   -3.8840   -3.4260 hx        1 MOL      0.096398
     37 H17         5.5010   -3.8560   -2.4630 hx        1 MOL      0.096398
     38 H18         7.6540   -5.7340   -2.0760 hn        1 MOL      0.274863
     39 H19         6.2270   -5.7110   -1.2620 hn        1 MOL      0.274863
     40 H20         6.2370   -6.1410   -2.7730 hn        1 MOL      0.274863
     41 N4          5.1170    1.0450   -0.5270 n         1 MOL     -0.472142
     42 C13         3.7980    1.1460    0.0770 c3        1 MOL      0.093232
     43 C14         2.9140   -0.0030   -0.4200 c         1 MOL      0.356128
     44 O6          2.2010    0.2120   -1.4710 o         1 MOL     -0.501432
     45 C15         3.2630    2.5910   -0.2740 c3        1 MOL     -0.035545
     46 C16         4.3020    3.6870   -0.2080 c         1 MOL      0.953036
     47 O7          4.9220    4.0050    0.8170 o         1 MOL     -0.904705
     48 O8          4.5760    4.3530   -1.1810 o         1 MOL     -0.904705
     49 H21         5.1510    0.9350   -1.5270 hn        1 MOL      0.302773
     50 H22         3.8740    1.0900    1.1660 h1        1 MOL      0.114337
     51 H23         2.4420    2.9510    0.3520 hc        1 MOL      0.030956
     52 H24         2.8340    2.5770   -1.2740 hc        1 MOL      0.030956
     53 N5          3.0560   -1.2250    0.0910 n         1 MOL     -0.198764
     54 C17         3.9400   -1.5880    1.2100 c3        1 MOL     -0.140027
     55 C18         3.7920   -3.0810    1.7340 c         1 MOL      0.566222
     56 O9          3.3740   -3.9400    0.9850 o         1 MOL     -0.575316
     57 H25         2.3340   -1.8480   -0.2530 hn        1 MOL      0.185656
     58 H26         3.9050   -0.9050    2.0590 h1        1 MOL      0.072645
     59 H27         4.9770   -1.3800    0.9370 h1        1 MOL      0.072645
     60 N6          4.0740   -3.3400    3.0090 n         1 MOL     -0.511426
     61 C19         4.0690   -4.6590    3.7070 c3        1 MOL      0.194650
     62 C20         2.8380   -5.5770    3.3590 c         1 MOL      0.461407
     63 O10         3.0610   -6.7760    3.3160 o         1 MOL     -0.560719
     64 C21         4.1950   -4.4170    5.2020 c3        1 MOL     -0.528556
     65 C22         3.1190   -3.6570    5.8880 c         1 MOL      0.790209
     66 O11         3.0780   -3.6190    7.1450 o         1 MOL     -0.695868
     67 O12         2.2370   -3.1080    5.2240 o         1 MOL     -0.695868
     68 H28         4.3190   -2.5080    3.5420 hn        1 MOL      0.326011
     69 H29         4.9320   -5.2170    3.3290 h1        1 MOL      0.028624
     70 H30         5.1010   -3.8590    5.4050 hc        1 MOL      0.142732
     71 H31         4.1760   -5.4070    5.6650 hc        1 MOL      0.142732
     72 N7          1.6650   -4.9800    3.0940 n         1 MOL     -0.079162
     73 C23         0.4200   -5.6980    2.6730 c3        1 MOL     -0.222885
     74 C24         0.0760   -5.6970    1.1800 c         1 MOL      0.680450
     75 O13        -0.8990   -6.2800    0.8460 o         1 MOL     -0.589592
     76 H32         1.5800   -4.0380    3.4500 hn        1 MOL      0.202428
     77 H33        -0.3690   -5.2660    3.2850 h1        1 MOL      0.101717
     78 H34         0.3870   -6.7230    3.0370 h1        1 MOL      0.101717
     79 N8          0.9870   -5.1250    0.3790 n         1 MOL     -0.453962
     80 C25         0.7160   -4.8860   -1.0160 c3        1 MOL      0.040237
     81 C26         0.4000   -3.4280   -1.1930 c         1 MOL      0.397295
     82 O14         0.7300   -2.6210   -0.3530 o         1 MOL     -0.381428
     83 C27         1.9040   -5.4430   -1.8010 c3        1 MOL      0.312128
     84 C28         1.6700   -6.9720   -1.8310 c3        1 MOL     -0.306248
     85 O15         1.9360   -5.0710   -3.1760 oh        1 MOL     -0.590320
     86 H35         1.7410   -4.6390    0.8430 hn        1 MOL      0.189945
     87 H36        -0.1210   -5.5130   -1.3560 h1        1 MOL      0.066480
     88 H37         2.8470   -5.2740   -1.2870 h1        1 MOL      0.027199
     89 H38         2.2700   -4.1680   -3.1810 ho        1 MOL      0.331606
     90 H39         2.4090   -7.3660   -2.5250 hc        1 MOL      0.089558
     91 H40         1.8770   -7.5540   -0.9320 hc        1 MOL      0.089558
     92 H41         0.6530   -7.2390   -2.1010 hc        1 MOL      0.089558
     93 N9         -0.2170   -3.0490   -2.3090 n         1 MOL     -0.295306
     94 C29        -0.6450   -1.6710   -2.6440 c3        1 MOL     -0.237642
     95 C30        -1.9510   -1.3250   -1.8750 c         1 MOL      0.612095
     96 O16        -2.1560   -0.1570   -1.4710 o         1 MOL     -0.508510
     97 C31        -0.6960   -1.4250   -4.1570 c3        1 MOL      0.381317
     98 C32         0.3290   -2.0260   -5.1160 c3        1 MOL     -0.063558
     99 C33        -0.9780    0.1290   -4.2670 c3        1 MOL     -0.254230
    100 C34        -0.2030   -2.0030   -6.6170 c3        1 MOL     -0.111982
    101 H42        -0.3910   -3.7310   -3.0350 hn        1 MOL      0.243125
    102 H43         0.2040   -1.0910   -2.2830 h1        1 MOL      0.109525
    103 H44        -1.6320   -1.8880   -4.4900 hc        1 MOL     -0.071333
    104 H45         0.5720   -3.0220   -4.7690 hc        1 MOL     -0.000875
    105 H46         1.2020   -1.3640   -5.1040 hc        1 MOL     -0.000875
    106 H47        -0.7370    0.4840   -5.2670 hc        1 MOL      0.059606
    107 H48        -2.0280    0.3050   -4.0090 hc        1 MOL      0.059606
    108 H49        -0.3230    0.6120   -3.5340 hc        1 MOL      0.059606
    109 H50        -0.9520   -2.7440   -6.8530 hc        1 MOL      0.032134
    110 H51        -0.6880   -1.0480   -6.8060 hc        1 MOL      0.032134
    111 H52         0.5560   -2.1800   -7.3830 hc        1 MOL      0.032134
    112 N10        -2.7890   -2.3380   -1.5290 n         1 MOL     -0.446045
    113 C35        -4.0550   -2.1860   -0.7360 c3        1 MOL      0.031201
    114 C36        -5.3310   -2.5610   -1.4530 c         1 MOL      0.633796
    115 O17        -5.2680   -3.3070   -2.4170 o         1 MOL     -0.556731
    116 C37        -3.9630   -2.8410    0.6440 c3        1 MOL      0.453398
    117 C38        -4.1750   -4.3740    0.6070 c3        1 MOL     -0.437904
    118 O18        -2.7770   -2.5520    1.2640 oh        1 MOL     -0.594543
    119 H53        -2.6690   -3.2770   -1.8870 hn        1 MOL      0.241415
    120 H54        -4.2230   -1.1520   -0.4260 h1        1 MOL      0.053999
    121 H55        -4.7830   -2.4910    1.2800 h1        1 MOL     -0.062942
    122 H56        -2.7100   -3.1460    2.0150 ho        1 MOL      0.392264
    123 H57        -4.1210   -4.7450    1.6340 hc        1 MOL      0.107875
    124 H58        -5.1800   -4.6170    0.2790 hc        1 MOL      0.107875
    125 H59        -3.5520   -4.8510   -0.1480 hc        1 MOL      0.107875
    126 N11        -6.4180   -1.9680   -1.0640 n         1 MOL     -0.578840
    127 C39        -7.7390   -2.0810   -1.6720 c3        1 MOL     -0.045861
    128 C40        -8.5560   -0.7110   -1.6260 c         1 MOL      0.656566
    129 O19        -9.2540   -0.4160   -2.5820 o         1 MOL     -0.572018
    130 C41        -8.5920   -3.2510   -1.0890 c3        1 MOL      0.227894
    131 C42        -9.9600   -3.3400   -1.6650 c3        1 MOL     -0.328256
    132 O20        -8.8620   -3.0270    0.2750 oh        1 MOL     -0.591642
    133 H60        -6.3100   -1.2710   -0.3330 hn        1 MOL      0.293188
    134 H61        -7.6510   -2.3890   -2.7120 h1        1 MOL      0.118972
    135 H62        -8.1360   -4.2420   -1.1460 h1        1 MOL      0.071408
    136 H63        -8.3690   -3.6360    0.8350 ho        1 MOL      0.389193
    137 H64       -10.2570   -4.3760   -1.5570 hc        1 MOL      0.094636
    138 H65       -10.5740   -2.6580   -1.0800 hc        1 MOL      0.094636
    139 H66        -9.9820   -3.1170   -2.7310 hc        1 MOL      0.094636
    140 N12        -8.5440   -0.0040   -0.5340 n         1 MOL     -0.502229
    141 C43        -9.4890    1.0680   -0.2210 c3        1 MOL      0.013169
    142 C44        -8.8770    2.1780    0.6190 c         1 MOL      0.732859
    143 O21        -8.3240    1.8340    1.6890 o         1 MOL     -0.531523
    144 C45       -10.6790    0.3080    0.4140 c3        1 MOL     -0.333814
    145 C46       -11.7100    1.2850    1.0740 c3        1 MOL      0.169263
    146 C47       -13.0210    0.7040    1.5660 c3        1 MOL     -0.021428
    147 C48       -13.8650    1.5330    2.5570 c3        1 MOL     -0.083503
    148 N13       -14.8860    2.2600    1.8300 n4        1 MOL     -0.306618
    149 H67        -7.9710   -0.3880    0.2090 hn        1 MOL      0.288264
    150 H68        -9.8760    1.4490   -1.1750 h1        1 MOL      0.112918
    151 H69       -10.3430   -0.4360    1.1360 hc        1 MOL      0.139091
    152 H70       -11.2260   -0.1840   -0.3850 hc        1 MOL      0.139091
    153 H71       -11.9410    2.0800    0.3640 hc        1 MOL     -0.008400
    154 H72       -11.3220    1.7480    1.9890 hc        1 MOL     -0.008400
    155 H73       -12.7310   -0.2060    2.0860 hc        1 MOL      0.012201
    156 H74       -13.6030    0.3870    0.6940 hc        1 MOL      0.012201
    157 H75       -13.1420    2.0730    3.1760 hx        1 MOL      0.129083
    158 H76       -14.3800    0.8190    3.1970 hx        1 MOL      0.129083
    159 H77       -14.4780    2.9490    1.2220 hn        1 MOL      0.269065
    160 H78       -15.3290    1.5990    1.2170 hn        1 MOL      0.269065
    161 H79       -15.5460    2.7260    2.4430 hn        1 MOL      0.269065
    162 N14        -8.9480    3.4480    0.3200 n         1 MOL     -0.752881
    163 C49        -8.2420    4.4760    1.0260 c3        1 MOL      0.147840
    164 C50        -6.6730    4.3240    0.8350 c         1 MOL      0.386057
    165 O22        -6.0420    4.1840    1.8220 o         1 MOL     -0.536978
    166 C51        -8.7240    5.8750    0.5030 c3        1 MOL      0.380800
    167 C52        -8.2310    7.0420    1.3070 c3        1 MOL     -0.391650
    168 C53        -8.7710    8.3700    0.7540 c         1 MOL      0.717312
    169 O23        -9.0330    8.4990   -0.4020 o         1 MOL     -0.625510
    170 O24        -9.3250    9.2720    1.4740 o         1 MOL     -0.625510
    171 H80        -9.3820    3.7780   -0.5370 hn        1 MOL      0.314154
    172 H81        -8.4390    4.5100    2.0970 h1        1 MOL      0.062057
    173 H82        -9.8120    5.8940    0.5280 hc        1 MOL     -0.072403
    174 H83        -8.3800    5.8390   -0.5350 hc        1 MOL     -0.072403
    175 H84        -7.1430    7.0740    1.3710 hc        1 MOL      0.071745
    176 H85        -8.6690    6.8910    2.2980 hc        1 MOL      0.071745
    177 N15        -6.0240    4.2830   -0.2760 n         1 MOL     -0.222921
    178 C54        -6.3450    4.4620   -1.6510 c3        1 MOL     -0.086609
    179 H86        -5.9620    3.6190   -2.2260 h1        1 MOL      0.059326
    180 H87        -7.4270    4.5190   -1.7690 h1        1 MOL      0.059326
    181 H88        -5.8910    5.3840   -2.0140 h1        1 MOL      0.059326
    182 H89        -5.0210    4.1540   -0.1560 hn        1 MOL      0.263496
    183 Ca1         6.7740    5.5100   -0.4330 Ca        1 MOL      1.759081
    184 O25         8.7580    7.3890   -0.4870 oh        1 MOL     -0.914649
    185 H90         9.5720    7.5900   -0.0300 ho        1 MOL      0.442174
    186 H91         8.2370    8.1900   -0.3940 ho        1 MOL      0.442174
@<TRIPOS>BOND
     1    1    2 1   
     2    1    4 1   
     3    1    5 1   
     4    1    6 1   
     5    2    3 2   
     6    2    7 1   
     7    7    8 1   
     8    7   15 1   
     9    8    9 1   
    10    8   11 1   
    11    8   16 1   
    12    9   10 2   
    13    9   19 1   
    14   11   12 1   
    15   11   17 1   
    16   11   18 1   
    17   12   13 1   
    18   12   14 1   
    19   19   20 1   
    20   19   28 1   
    21   20   21 1   
    22   20   23 1   
    23   20   29 1   
    24   21   22 2   
    25   21   41 1   
    26   23   24 1   
    27   23   30 1   
    28   23   31 1   
    29   24   25 1   
    30   24   32 1   
    31   24   33 1   
    32   25   26 1   
    33   25   34 1   
    34   25   35 1   
    35   26   27 1   
    36   26   36 1   
    37   26   37 1   
    38   27   38 1   
    39   27   39 1   
    40   27   40 1   
    41   41   42 1   
    42   41   49 1   
    43   42   43 1   
    44   42   45 1   
    45   42   50 1   
    46   43   44 2   
    47   43   53 1   
    48   45   46 1   
    49   45   51 1   
    50   45   52 1   
    51   46   47 1   
    52   46   48 1   
    53   53   54 1   
    54   53   57 1   
    55   54   55 1   
    56   54   58 1   
    57   54   59 1   
    58   55   56 2   
    59   55   60 1   
    60   60   61 1   
    61   60   68 1   
    62   61   62 1   
    63   61   64 1   
    64   61   69 1   
    65   62   63 2   
    66   62   72 1   
    67   64   65 1   
    68   64   70 1   
    69   64   71 1   
    70   65   66 1   
    71   65   67 1   
    72   72   73 1   
    73   72   76 1   
    74   73   74 1   
    75   73   77 1   
    76   73   78 1   
    77   74   75 2   
    78   74   79 1   
    79   79   80 1   
    80   79   86 1   
    81   80   81 1   
    82   80   83 1   
    83   80   87 1   
    84   81   82 2   
    85   81   93 1   
    86   83   84 1   
    87   83   85 1   
    88   83   88 1   
    89   84   90 1   
    90   84   91 1   
    91   84   92 1   
    92   85   89 1   
    93   93   94 1   
    94   93  101 1   
    95   94   95 1   
    96   94   97 1   
    97   94  102 1   
    98   95   96 2   
    99   95  112 1   
   100   97   98 1   
   101   97   99 1   
   102   97  103 1   
   103   98  100 1   
   104   98  104 1   
   105   98  105 1   
   106   99  106 1   
   107   99  107 1   
   108   99  108 1   
   109  100  109 1   
   110  100  110 1   
   111  100  111 1   
   112  112  113 1   
   113  112  119 1   
   114  113  114 1   
   115  113  116 1   
   116  113  120 1   
   117  114  115 2   
   118  114  126 1   
   119  116  117 1   
   120  116  118 1   
   121  116  121 1   
   122  117  123 1   
   123  117  124 1   
   124  117  125 1   
   125  118  122 1   
   126  126  127 1   
   127  126  133 1   
   128  127  128 1   
   129  127  130 1   
   130  127  134 1   
   131  128  129 2   
   132  128  140 1   
   133  130  131 1   
   134  130  132 1   
   135  130  135 1   
   136  131  137 1   
   137  131  138 1   
   138  131  139 1   
   139  132  136 1   
   140  140  141 1   
   141  140  149 1   
   142  141  142 1   
   143  141  144 1   
   144  141  150 1   
   145  142  143 2   
   146  142  162 1   
   147  144  145 1   
   148  144  151 1   
   149  144  152 1   
   150  145  146 1   
   151  145  153 1   
   152  145  154 1   
   153  146  147 1   
   154  146  155 1   
   155  146  156 1   
   156  147  148 1   
   157  147  157 1   
   158  147  158 1   
   159  148  159 1   
   160  148  160 1   
   161  148  161 1   
   162  162  163 1   
   163  162  171 1   
   164  163  164 1   
   165  163  166 1   
   166  163  172 1   
   167  164  165 2   
   168  164  177 1   
   169  166  167 1   
   170  166  173 1   
   171  166  174 1   
   172  167  168 1   
   173  167  175 1   
   174  167  176 1   
   175  168  169 1   
   176  168  170 1   
   177  177  178 1   
   178  177  182 1   
   179  178  179 1   
   180  178  180 1   
   181  178  181 1   
   182  184  185 1   
   183  184  186 1   
@<TRIPOS>SUBSTRUCTURE
     1 MOL         1 TEMP              0 ****  ****    0 ROOT
