@<TRIPOS>MOLECULE
MOL
  198   191     1     0     0
SMALL
resp


@<TRIPOS>ATOM
      1 C1         -4.6760    6.1800    1.0290 c3        1 MOL     -0.448994
      2 C2         -6.1690    5.8570    1.0350 c         1 MOL      0.673348
      3 O1         -6.9710    6.5560    0.4500 o         1 MOL     -0.549674
      4 H1         -4.2850    6.0700    0.0170 hc        1 MOL      0.115859
      5 H2         -4.5240    7.2050    1.3680 hc        1 MOL      0.115859
      6 H3         -4.1530    5.4940    1.6970 hc        1 MOL      0.115859
      7 N1         -6.6090    4.7830    1.6890 n         1 MOL     -0.529033
      8 C3         -8.0060    4.2120    1.5800 c3        1 MOL      0.198773
      9 C4         -8.4280    3.5380    0.2210 c         1 MOL      0.376721
     10 O2         -7.8010    3.8320   -0.7900 o         1 MOL     -0.501990
     11 C5         -9.0710    5.1610    2.1920 c3        1 MOL     -0.297024
     12 C6        -10.5090    4.7100    2.3260 c         1 MOL      0.727546
     13 O3        -10.7870    3.5770    2.8190 o         1 MOL     -0.702382
     14 O4        -11.4020    5.4510    1.8960 o         1 MOL     -0.702382
     15 H4         -5.9970    4.1840    2.2270 hn        1 MOL      0.302122
     16 H5         -8.0480    3.3720    2.2690 h1        1 MOL     -0.000284
     17 H6         -9.0240    6.1210    1.6840 hc        1 MOL      0.073173
     18 H7         -8.6360    5.4510    3.1530 hc        1 MOL      0.073173
     19 N2         -9.4410    2.6780    0.1780 n         1 MOL     -0.181515
     20 C7         -9.8650    1.9630   -1.0770 c3        1 MOL      0.167489
     21 C8         -8.8230    0.9040   -1.5180 c         1 MOL      0.394877
     22 O5         -8.6720    0.5450   -2.7200 o         1 MOL     -0.530128
     23 C9        -10.5380    2.9100   -2.1220 c3        1 MOL     -0.106411
     24 C10       -11.8030    2.2460   -2.7790 c3        1 MOL     -0.025556
     25 C11       -12.4480    3.3290   -3.6760 c3        1 MOL     -0.333023
     26 C12       -11.5420    3.6560   -4.8700 c3        1 MOL     -0.115790
     27 N3        -11.4680    2.3700   -5.7420 n4        1 MOL     -0.322353
     28 H8         -9.9970    2.6190    1.0220 hn        1 MOL      0.132234
     29 H9        -10.6580    1.3100   -0.7200 h1        1 MOL      0.026382
     30 H10        -9.7480    3.1100   -2.8480 hc        1 MOL      0.087723
     31 H11       -10.8700    3.8080   -1.6120 hc        1 MOL      0.087723
     32 H12       -12.5280    2.0420   -1.9880 hc        1 MOL      0.041122
     33 H13       -11.5970    1.3320   -3.3310 hc        1 MOL      0.041122
     34 H14       -12.4600    4.2040   -3.0400 hc        1 MOL      0.167818
     35 H15       -13.4790    3.0940   -3.9430 hc        1 MOL      0.167818
     36 H16       -10.5710    4.0240   -4.5590 hx        1 MOL      0.144452
     37 H17       -11.8700    4.4850   -5.4960 hx        1 MOL      0.144452
     38 H18       -10.9990    2.5200   -6.6220 hn        1 MOL      0.310494
     39 H19       -10.7930    1.7090   -5.3690 hn        1 MOL      0.310494
     40 H20       -12.3650    1.9300   -5.8740 hn        1 MOL      0.310494
     41 N4         -8.0870    0.3810   -0.5080 n         1 MOL     -0.387979
     42 C13        -7.0770   -0.6510   -0.6050 c3        1 MOL      0.093775
     43 C14        -6.6890   -1.1320    0.8090 c         1 MOL      0.441495
     44 O6         -6.3590   -0.3130    1.7290 o         1 MOL     -0.537447
     45 C15        -5.7740    0.0020   -1.0380 c3        1 MOL     -0.159885
     46 C16        -4.5580   -0.9710   -1.1270 c         1 MOL      0.624671
     47 O7         -4.7550   -2.1990   -1.3690 o         1 MOL     -0.692828
     48 O8         -3.4000   -0.5290   -0.8590 o         1 MOL     -0.692828
     49 H21        -8.2900    0.6710    0.4350 hn        1 MOL      0.237442
     50 H22        -7.3540   -1.4410   -1.2970 h1        1 MOL      0.096574
     51 H23        -5.5260    0.9240   -0.4990 hc        1 MOL      0.065157
     52 H24        -5.9330    0.3100   -2.0740 hc        1 MOL      0.065157
     53 N5         -6.8270   -2.4100    1.1880 n         1 MOL     -0.332721
     54 C17        -7.3300   -3.6630    0.5020 c3        1 MOL     -0.182763
     55 C18        -6.4300   -4.8360    0.6520 c         1 MOL      0.588980
     56 O9         -6.8780   -5.8060    1.2680 o         1 MOL     -0.552178
     57 H25        -6.6940   -2.4890    2.1820 hn        1 MOL      0.288824
     58 H26        -7.5330   -3.3760   -0.5270 h1        1 MOL      0.100074
     59 H27        -8.2330   -3.9440    1.0540 h1        1 MOL      0.100074
     60 N6         -5.1640   -4.6420    0.1970 n         1 MOL     -0.174976
     61 C19        -4.0110   -5.5570    0.3160 c3        1 MOL     -0.237849
     62 C20        -2.6770   -4.7890    0.4980 c         1 MOL      0.335248
     63 O10        -2.5110   -3.6550    0.0450 o         1 MOL     -0.523848
     64 C21        -3.9210   -6.4100   -0.9870 c3        1 MOL      0.017795
     65 C22        -4.1380   -5.6880   -2.2510 c         1 MOL      0.563344
     66 O11        -3.2720   -4.8730   -2.6460 o         1 MOL     -0.659043
     67 O12        -5.2140   -5.8890   -2.8310 o         1 MOL     -0.659043
     68 H28        -4.9980   -3.6680   -0.0250 hn        1 MOL      0.256022
     69 H29        -4.1450   -6.1750    1.2070 h1        1 MOL      0.109888
     70 H30        -4.7500   -7.1060   -0.8790 hc        1 MOL      0.018650
     71 H31        -3.0190   -7.0190   -1.0790 hc        1 MOL      0.018650
     72 N7         -1.7170   -5.4790    1.0430 n         1 MOL     -0.266311
     73 C23        -0.3460   -4.9830    1.1770 c3        1 MOL     -0.027068
     74 C24        -0.0850   -3.9180    2.3000 c         1 MOL      0.404957
     75 O13         0.9120   -4.0200    3.0260 o         1 MOL     -0.540974
     76 H32        -2.0000   -6.3940    1.3650 hn        1 MOL      0.287787
     77 H33        -0.0040   -4.5510    0.2320 h1        1 MOL      0.057609
     78 H34         0.3610   -5.7850    1.3670 h1        1 MOL      0.057609
     79 N8         -0.9150   -2.8850    2.3920 n         1 MOL     -0.103610
     80 C25        -0.9400   -1.7190    3.3430 c3        1 MOL     -0.022195
     81 C26        -0.3250   -0.4060    2.7750 c         1 MOL      0.404353
     82 O14        -0.5570   -0.1540    1.5670 o         1 MOL     -0.468166
     83 C27        -2.4380   -1.4490    3.7690 c3        1 MOL      0.205273
     84 C28        -3.5150   -1.5800    2.6820 c3        1 MOL     -0.100266
     85 O15        -2.6770   -2.4520    4.7090 oh        1 MOL     -0.651856
     86 H35        -1.6310   -2.8480    1.6790 hn        1 MOL      0.188588
     87 H36        -0.4270   -2.0400    4.2500 h1        1 MOL      0.110232
     88 H37        -2.5610   -0.5030    4.3090 h1        1 MOL      0.016921
     89 H38        -3.4240   -2.1330    5.2070 ho        1 MOL      0.418481
     90 H39        -4.5230   -1.4340    3.0600 hc        1 MOL      0.041890
     91 H40        -3.2200   -0.9020    1.8750 hc        1 MOL      0.041890
     92 H41        -3.5120   -2.5940    2.3110 hc        1 MOL      0.041890
     93 N9          0.5210    0.3330    3.5040 n         1 MOL     -0.446325
     94 C29         1.0800    1.5930    2.9120 c3        1 MOL     -0.011390
     95 C30         2.3280    1.2800    2.0530 c         1 MOL      0.473152
     96 O16         2.7560    2.1310    1.2720 o         1 MOL     -0.529040
     97 C31         1.2860    2.6860    3.9380 c3        1 MOL      0.268916
     98 C32         2.3490    2.3030    4.9570 c3        1 MOL      0.119317
     99 C33        -0.0480    3.1300    4.6580 c3        1 MOL     -0.178521
    100 C34         3.1580    3.4460    5.6850 c3        1 MOL     -0.412187
    101 H42         0.6900    0.1740    4.4890 hn        1 MOL      0.280938
    102 H43         0.4340    1.9980    2.1330 h1        1 MOL      0.106484
    103 H44         1.6720    3.4930    3.3160 hc        1 MOL     -0.047178
    104 H45         3.0640    1.6610    4.4300 hc        1 MOL     -0.030254
    105 H46         1.8920    1.6210    5.6740 hc        1 MOL     -0.030254
    106 H47        -0.8480    3.2230    3.9190 hc        1 MOL      0.038588
    107 H48        -0.2470    2.5260    5.5470 hc        1 MOL      0.038588
    108 H49         0.0750    4.1680    4.9700 hc        1 MOL      0.038588
    109 H50         3.7280    3.0860    6.5470 hc        1 MOL      0.109127
    110 H51         3.8990    3.8550    4.9940 hc        1 MOL      0.109127
    111 H52         2.4410    4.1350    6.1290 hc        1 MOL      0.109127
    112 N10         2.9200    0.0520    2.0770 n         1 MOL     -0.123170
    113 C35         4.0140   -0.3460    1.0850 c3        1 MOL     -0.297755
    114 C36         5.1240   -1.1400    1.7330 c         1 MOL      0.644978
    115 O17         4.9820   -1.7030    2.7900 o         1 MOL     -0.517651
    116 C37         3.4340   -1.2300   -0.0370 c3        1 MOL      0.477051
    117 C38         2.9220   -2.6090    0.4130 c3        1 MOL     -0.316624
    118 O18         2.3140   -0.6280   -0.6210 oh        1 MOL     -0.744850
    119 H53         2.7220   -0.5830    2.8470 hn        1 MOL      0.166946
    120 H54         4.4510    0.6080    0.7580 h1        1 MOL      0.116787
    121 H55         4.1520   -1.4630   -0.8260 h1        1 MOL     -0.012014
    122 H56         2.6650    0.0830   -1.1720 ho        1 MOL      0.435695
    123 H57         3.7970   -3.2590    0.4060 hc        1 MOL      0.091754
    124 H58         2.5440   -2.5430    1.4400 hc        1 MOL      0.091754
    125 H59         2.1840   -3.0520   -0.2570 hc        1 MOL      0.091754
    126 N11         6.2800   -1.2890    1.0670 n         1 MOL     -0.568258
    127 C39         7.5210   -1.9230    1.6630 c3        1 MOL      0.119633
    128 C40         8.8300   -1.1000    1.3700 c         1 MOL      0.532588
    129 O19         9.7190   -1.1890    2.2280 o         1 MOL     -0.530285
    130 C41         7.6090   -3.3650    1.0970 c3        1 MOL      0.171195
    131 C42         8.8310   -4.0630    1.5800 c3        1 MOL     -0.436379
    132 O20         7.6780   -3.2990   -0.2740 oh        1 MOL     -0.567297
    133 H60         6.3950   -0.9960    0.1180 hn        1 MOL      0.282203
    134 H61         7.4310   -1.8720    2.7470 h1        1 MOL      0.092058
    135 H62         6.6990   -3.7890    1.5230 h1        1 MOL      0.062096
    136 H63         7.9250   -4.2180   -0.4230 ho        1 MOL      0.396109
    137 H64         8.9160   -3.9500    2.6600 hc        1 MOL      0.121273
    138 H65         8.9090   -5.1080    1.2830 hc        1 MOL      0.121273
    139 H66         9.7250   -3.6490    1.1080 hc        1 MOL      0.121273
    140 N12         8.9270   -0.4500    0.1870 n         1 MOL     -0.517725
    141 C43        10.0890    0.3230   -0.2140 c3        1 MOL     -0.078900
    142 C44         9.5390    1.3280   -1.2560 c         1 MOL      0.575182
    143 O21         9.0140    0.9910   -2.3240 o         1 MOL     -0.505486
    144 C45        11.1910   -0.5960   -0.7320 c3        1 MOL     -0.064761
    145 C46        12.5510    0.0750   -1.0660 c3        1 MOL     -0.076217
    146 C47        13.6690   -0.9750   -1.4010 c3        1 MOL      0.210915
    147 C48        14.8010   -0.2880   -2.2260 c3        1 MOL     -0.195689
    148 N13        15.4200    0.7710   -1.3980 n4        1 MOL     -0.189303
    149 H67         8.1260   -0.4980   -0.4160 hn        1 MOL      0.319642
    150 H68        10.5930    0.7870    0.6290 h1        1 MOL      0.120942
    151 H69        10.8060   -1.1340   -1.6100 hc        1 MOL      0.086817
    152 H70        11.4050   -1.3660    0.0080 hc        1 MOL      0.086817
    153 H71        12.9870    0.7260   -0.3120 hc        1 MOL      0.023159
    154 H72        12.3490    0.6640   -1.9530 hc        1 MOL      0.023159
    155 H73        13.3060   -1.8900   -1.8790 hc        1 MOL     -0.042140
    156 H74        14.1290   -1.3460   -0.4910 hc        1 MOL     -0.042140
    157 H75        14.4390    0.1670   -3.1410 hx        1 MOL      0.140295
    158 H76        15.6020   -1.0120   -2.3820 hx        1 MOL      0.140295
    159 H77        15.0050    1.6480   -1.6770 hn        1 MOL      0.270042
    160 H78        15.0340    0.6620   -0.4810 hn        1 MOL      0.270042
    161 H79        16.4320    0.7730   -1.4200 hn        1 MOL      0.270042
    162 N14         9.6810    2.6410   -0.9670 n         1 MOL     -0.514359
    163 C49         9.4420    3.8320   -1.8460 c3        1 MOL      0.242498
    164 C50         8.0260    4.4180   -1.6250 c         1 MOL      0.418292
    165 O22         7.2940    4.5750   -2.5850 o         1 MOL     -0.546670
    166 C51        10.5970    4.8100   -1.7950 c3        1 MOL      0.059222
    167 C52        11.7610    4.7180   -2.8030 c3        1 MOL     -0.224997
    168 C53        12.4070    3.2770   -2.8350 c         1 MOL      0.702116
    169 O23        12.1820    2.5470   -3.8390 o         1 MOL     -0.695607
    170 O24        13.1360    2.9050   -1.9180 o         1 MOL     -0.695607
    171 H80        10.2340    2.7070   -0.1170 hn        1 MOL      0.248622
    172 H81         9.4970    3.3870   -2.8370 h1        1 MOL      0.085951
    173 H82        10.9960    4.8500   -0.7840 hc        1 MOL     -0.015188
    174 H83        10.0950    5.7670   -1.9520 hc        1 MOL     -0.015188
    175 H84        12.5120    5.4420   -2.5050 hc        1 MOL      0.054761
    176 H85        11.3590    4.9390   -3.7900 hc        1 MOL      0.054761
    177 N15         7.5920    4.9410   -0.4810 n         1 MOL     -0.347977
    178 C54         8.2550    5.0220    0.7840 c3        1 MOL     -0.083826
    179 H86         7.5360    4.8440    1.5830 h1        1 MOL      0.059901
    180 H87         9.0430    4.2700    0.8310 h1        1 MOL      0.059901
    181 H88         8.6920    6.0140    0.9020 h1        1 MOL      0.059901
    182 H89         6.5900    5.0460   -0.4850 hn        1 MOL      0.300097
    183 Ca1        -2.1250   -2.6020   -2.3090 Ca        1 MOL      1.625004
    184 O25        -0.3610   -1.6360   -0.6780 oh        1 MOL     -0.811534
    185 H90         0.5800   -1.6050   -0.8390 ho        1 MOL      0.408608
    186 H91        -0.4840   -1.0620    0.0780 ho        1 MOL      0.408608
    187 O26        -2.0400   -0.1300   -3.3230 oh        1 MOL     -0.811534
    188 H92        -2.3420    0.5560   -2.7230 ho        1 MOL      0.408608
    189 H93        -2.0200    0.2900   -4.1810 ho        1 MOL      0.408608
    190 O27        -3.8330   -2.6620   -4.4650 oh        1 MOL     -0.811534
    191 H94        -3.7550   -3.1080   -5.3010 ho        1 MOL      0.408608
    192 H95        -4.5250   -3.1350   -4.0010 ho        1 MOL      0.408608
    193 O28        -0.4430   -4.7580   -2.4660 oh        1 MOL     -0.811534
    194 H96         0.4220   -5.1100   -2.6800 ho        1 MOL      0.408608
    195 H97        -1.0160   -5.5290   -2.4280 ho        1 MOL      0.408608
    196 O29        -0.3450   -2.2370   -4.2930 oh        1 MOL     -0.811534
    197 H98        -0.2140   -1.3570   -4.6380 ho        1 MOL      0.408608
    198 H99         0.5370   -2.5990   -4.2150 ho        1 MOL      0.408608
@<TRIPOS>BOND
     1    1    2 1   
     2    1    4 1   
     3    1    5 1   
     4    1    6 1   
     5    2    3 2   
     6    2    7 1   
     7    7    8 1   
     8    7   15 1   
     9    8    9 1   
    10    8   11 1   
    11    8   16 1   
    12    9   10 2   
    13    9   19 1   
    14   11   12 1   
    15   11   17 1   
    16   11   18 1   
    17   12   13 1   
    18   12   14 1   
    19   19   20 1   
    20   19   28 1   
    21   20   21 1   
    22   20   23 1   
    23   20   29 1   
    24   21   22 2   
    25   21   41 1   
    26   23   24 1   
    27   23   30 1   
    28   23   31 1   
    29   24   25 1   
    30   24   32 1   
    31   24   33 1   
    32   25   26 1   
    33   25   34 1   
    34   25   35 1   
    35   26   27 1   
    36   26   36 1   
    37   26   37 1   
    38   27   38 1   
    39   27   39 1   
    40   27   40 1   
    41   41   42 1   
    42   41   49 1   
    43   42   43 1   
    44   42   45 1   
    45   42   50 1   
    46   43   44 2   
    47   43   53 1   
    48   45   46 1   
    49   45   51 1   
    50   45   52 1   
    51   46   47 1   
    52   46   48 1   
    53   53   54 1   
    54   53   57 1   
    55   54   55 1   
    56   54   58 1   
    57   54   59 1   
    58   55   56 2   
    59   55   60 1   
    60   60   61 1   
    61   60   68 1   
    62   61   62 1   
    63   61   64 1   
    64   61   69 1   
    65   62   63 2   
    66   62   72 1   
    67   64   65 1   
    68   64   70 1   
    69   64   71 1   
    70   65   66 1   
    71   65   67 1   
    72   72   73 1   
    73   72   76 1   
    74   73   74 1   
    75   73   77 1   
    76   73   78 1   
    77   74   75 2   
    78   74   79 1   
    79   79   80 1   
    80   79   86 1   
    81   80   81 1   
    82   80   83 1   
    83   80   87 1   
    84   81   82 2   
    85   81   93 1   
    86   83   84 1   
    87   83   85 1   
    88   83   88 1   
    89   84   90 1   
    90   84   91 1   
    91   84   92 1   
    92   85   89 1   
    93   93   94 1   
    94   93  101 1   
    95   94   95 1   
    96   94   97 1   
    97   94  102 1   
    98   95   96 2   
    99   95  112 1   
   100   97   98 1   
   101   97   99 1   
   102   97  103 1   
   103   98  100 1   
   104   98  104 1   
   105   98  105 1   
   106   99  106 1   
   107   99  107 1   
   108   99  108 1   
   109  100  109 1   
   110  100  110 1   
   111  100  111 1   
   112  112  113 1   
   113  112  119 1   
   114  113  114 1   
   115  113  116 1   
   116  113  120 1   
   117  114  115 2   
   118  114  126 1   
   119  116  117 1   
   120  116  118 1   
   121  116  121 1   
   122  117  123 1   
   123  117  124 1   
   124  117  125 1   
   125  118  122 1   
   126  126  127 1   
   127  126  133 1   
   128  127  128 1   
   129  127  130 1   
   130  127  134 1   
   131  128  129 2   
   132  128  140 1   
   133  130  131 1   
   134  130  132 1   
   135  130  135 1   
   136  131  137 1   
   137  131  138 1   
   138  131  139 1   
   139  132  136 1   
   140  140  141 1   
   141  140  149 1   
   142  141  142 1   
   143  141  144 1   
   144  141  150 1   
   145  142  143 2   
   146  142  162 1   
   147  144  145 1   
   148  144  151 1   
   149  144  152 1   
   150  145  146 1   
   151  145  153 1   
   152  145  154 1   
   153  146  147 1   
   154  146  155 1   
   155  146  156 1   
   156  147  148 1   
   157  147  157 1   
   158  147  158 1   
   159  148  159 1   
   160  148  160 1   
   161  148  161 1   
   162  162  163 1   
   163  162  171 1   
   164  163  164 1   
   165  163  166 1   
   166  163  172 1   
   167  164  165 2   
   168  164  177 1   
   169  166  167 1   
   170  166  173 1   
   171  166  174 1   
   172  167  168 1   
   173  167  175 1   
   174  167  176 1   
   175  168  169 1   
   176  168  170 1   
   177  177  178 1   
   178  177  182 1   
   179  178  179 1   
   180  178  180 1   
   181  178  181 1   
   182  184  185 1   
   183  184  186 1   
   184  187  188 1   
   185  187  189 1   
   186  190  191 1   
   187  190  192 1   
   188  193  194 1   
   189  193  195 1   
   190  196  197 1   
   191  196  198 1   
@<TRIPOS>SUBSTRUCTURE
     1 MOL         1 TEMP              0 ****  ****    0 ROOT
