@<TRIPOS>MOLECULE
MOL
  189   185     1     0     0
SMALL
resp


@<TRIPOS>ATOM
      1 C1        -10.8120   -6.3940   -2.1910 c3        1 MOL     -0.269104
      2 C2        -10.5660   -4.9410   -1.6850 c         1 MOL      0.558864
      3 O1        -10.9430   -3.9450   -2.3380 o         1 MOL     -0.597257
      4 H1         -9.8840   -6.9620   -2.1270 hc        1 MOL      0.075904
      5 H2        -11.5740   -6.8700   -1.5750 hc        1 MOL      0.075904
      6 H3        -11.1490   -6.3660   -3.2280 hc        1 MOL      0.075904
      7 N1        -10.1520   -4.8000   -0.4170 n         1 MOL     -0.134379
      8 C3        -10.1900   -3.5140    0.2860 c3        1 MOL     -0.308462
      9 C4         -8.9390   -2.7060   -0.2020 c         1 MOL      0.442065
     10 O2         -7.8160   -2.9980    0.1510 o         1 MOL     -0.500338
     11 C5        -10.2100   -3.7500    1.8480 c3        1 MOL      0.198473
     12 C6         -9.1950   -4.7890    2.4060 c         1 MOL      0.705451
     13 O3         -9.1790   -4.9170    3.6520 o         1 MOL     -0.707665
     14 O4         -8.3840   -5.3970    1.7040 o         1 MOL     -0.707665
     15 H4         -9.7860   -5.6160    0.0610 hn        1 MOL      0.052645
     16 H5        -11.0780   -2.9120    0.0980 h1        1 MOL      0.107996
     17 H6        -11.2070   -4.1340    2.0910 hc        1 MOL     -0.006299
     18 H7        -10.1150   -2.7570    2.2840 hc        1 MOL     -0.006299
     19 N2         -9.2600   -1.5680   -0.7750 n         1 MOL     -0.183506
     20 C7         -8.2360   -0.6360   -1.2420 c3        1 MOL     -0.385717
     21 C8         -7.4580   -0.0360   -0.0920 c         1 MOL      0.767100
     22 O5         -8.0300    0.6370    0.8210 o         1 MOL     -0.582316
     23 C9         -8.8650    0.4510   -2.1730 c3        1 MOL     -0.009764
     24 C10        -7.8160    1.2830   -2.9060 c3        1 MOL      0.041097
     25 C11        -8.3730    2.3830   -3.8620 c3        1 MOL     -0.150466
     26 C12        -9.3930    3.2920   -3.3080 c3        1 MOL      0.138547
     27 N3         -9.7110    4.2650   -4.3860 n4        1 MOL     -0.293564
     28 H8        -10.2290   -1.3450   -0.9870 hn        1 MOL      0.269486
     29 H9         -7.5040   -1.1960   -1.8240 h1        1 MOL      0.168318
     30 H10        -9.4540    1.1150   -1.5370 hc        1 MOL      0.035957
     31 H11        -9.5550    0.0060   -2.8960 hc        1 MOL      0.035957
     32 H12        -7.2440    0.6170   -3.5470 hc        1 MOL      0.028884
     33 H13        -7.1210    1.7620   -2.2190 hc        1 MOL      0.028884
     34 H14        -8.7280    1.8380   -4.7370 hc        1 MOL      0.053604
     35 H15        -7.4680    2.9350   -4.1160 hc        1 MOL      0.053604
     36 H16        -8.9720    3.8620   -2.4850 hx        1 MOL      0.067181
     37 H17       -10.3110    2.8480   -2.9250 hx        1 MOL      0.067181
     38 H18        -8.8600    4.7920   -4.5020 hn        1 MOL      0.255169
     39 H19        -9.8660    3.7960   -5.2610 hn        1 MOL      0.255169
     40 H20       -10.5120    4.8560   -4.1950 hn        1 MOL      0.255169
     41 N4         -6.1360   -0.2520   -0.0310 n         1 MOL     -0.550508
     42 C13        -5.1200    0.1040    1.0720 c3        1 MOL      0.287439
     43 C14        -3.7530    0.5940    0.4740 c         1 MOL      0.152799
     44 O6         -3.2500   -0.0250   -0.4420 o         1 MOL     -0.406624
     45 C15        -4.9040   -1.0730    2.0740 c3        1 MOL      0.053008
     46 C16        -5.0450   -2.4590    1.5430 c         1 MOL      0.742469
     47 O7         -4.7780   -2.8350    0.3530 o         1 MOL     -0.790336
     48 O8         -5.5900   -3.3260    2.2560 o         1 MOL     -0.790336
     49 H21        -5.7480   -0.8460   -0.7510 hn        1 MOL      0.243090
     50 H22        -5.5560    0.9130    1.6620 h1        1 MOL     -0.021395
     51 H23        -5.5800   -1.0900    2.9300 hc        1 MOL      0.019916
     52 H24        -3.9550   -1.0000    2.6030 hc        1 MOL      0.019916
     53 N5         -3.1890    1.5690    1.1110 n         1 MOL     -0.027294
     54 C17        -3.4080    2.2000    2.4290 c3        1 MOL     -0.513242
     55 C18        -2.7570    3.5670    2.4670 c         1 MOL      0.813190
     56 O9         -2.5950    4.2510    1.3740 o         1 MOL     -0.660032
     57 H25        -2.3540    1.8960    0.6410 hn        1 MOL      0.261621
     58 H26        -3.1100    1.5530    3.2540 h1        1 MOL      0.165985
     59 H27        -4.4860    2.4020    2.5000 h1        1 MOL      0.165985
     60 N6         -2.3830    3.9830    3.6510 n         1 MOL     -0.477206
     61 C19        -2.0600    5.3990    3.9130 c3        1 MOL      0.083604
     62 C20        -0.6680    5.7650    3.3420 c         1 MOL      0.492732
     63 O10         0.2500    5.0400    3.6480 o         1 MOL     -0.485201
     64 C21        -2.2810    5.6760    5.3590 c3        1 MOL     -0.206109
     65 C22        -2.3090    7.2100    5.6090 c         1 MOL      0.679988
     66 O11        -1.9250    7.6610    6.7150 o         1 MOL     -0.635030
     67 O12        -2.9130    7.9680    4.8040 o         1 MOL     -0.635030
     68 H28        -2.5030    3.4190    4.4850 hn        1 MOL      0.293027
     69 H29        -2.8230    5.9810    3.4060 h1        1 MOL      0.010642
     70 H30        -1.4080    5.3460    5.9250 hc        1 MOL      0.061083
     71 H31        -3.2350    5.2320    5.6580 hc        1 MOL      0.061083
     72 N7         -0.6140    6.8410    2.5610 n         1 MOL     -0.326924
     73 C23         0.5500    7.2510    1.7880 c3        1 MOL     -0.053380
     74 C24         0.6830    6.5970    0.4430 c         1 MOL      0.520625
     75 O13         1.2080    7.2970   -0.4820 o         1 MOL     -0.579006
     76 H32        -1.4370    7.4160    2.5020 hn        1 MOL      0.253652
     77 H33         1.4140    6.8620    2.3370 h1        1 MOL      0.072793
     78 H34         0.5060    8.3370    1.7410 h1        1 MOL      0.072793
     79 N8          0.1350    5.3620    0.3290 n         1 MOL     -0.200267
     80 C25        -0.0320    4.5530   -0.8960 c3        1 MOL     -0.002678
     81 C26         0.0800    3.0390   -0.5590 c         1 MOL      0.175646
     82 O14         0.0450    2.6820    0.6170 o         1 MOL     -0.397883
     83 C27        -1.4060    4.6850   -1.6580 c3        1 MOL      0.542925
     84 C28        -2.1890    5.9570   -1.5090 c3        1 MOL     -0.411143
     85 O15        -1.1980    4.6020   -3.0280 oh        1 MOL     -0.654629
     86 H35        -0.2170    4.9260    1.1750 hn        1 MOL      0.151485
     87 H36         0.7520    4.6260   -1.6520 h1        1 MOL      0.050121
     88 H37        -2.0400    3.8610   -1.3150 h1        1 MOL     -0.094698
     89 H38        -2.0500    4.3960   -3.3940 ho        1 MOL      0.383077
     90 H39        -2.3140    6.2450   -0.4640 hc        1 MOL      0.098174
     91 H40        -1.6120    6.7580   -1.9760 hc        1 MOL      0.098174
     92 H41        -3.1740    5.9720   -1.9870 hc        1 MOL      0.098174
     93 N9          0.3610    2.2430   -1.5510 n         1 MOL     -0.232975
     94 C29         0.8230    0.8400   -1.2710 c3        1 MOL     -0.152271
     95 C30         2.3580    0.8310   -0.9490 c         1 MOL      0.659732
     96 O16         2.7430    0.2820    0.1090 o         1 MOL     -0.511264
     97 C31         0.4650    0.0420   -2.5550 c3        1 MOL     -0.018258
     98 C32        -0.9480    0.4100   -3.1320 c3        1 MOL      0.450532
     99 C33         0.6420   -1.3990   -2.2130 c3        1 MOL     -0.309866
    100 C34        -1.2980   -0.4220   -4.3630 c3        1 MOL     -0.520047
    101 H42         0.2300    2.6160   -2.4780 hn        1 MOL      0.247022
    102 H43         0.2730    0.5300   -0.3820 h1        1 MOL      0.093969
    103 H44         1.1540    0.2860   -3.3590 hc        1 MOL      0.032453
    104 H45        -0.9850    1.4520   -3.4500 hc        1 MOL     -0.091393
    105 H46        -1.7610    0.2430   -2.4300 hc        1 MOL     -0.091393
    106 H47         0.6040   -1.9970   -3.1220 hc        1 MOL      0.098358
    107 H48         1.5010   -1.6610   -1.5960 hc        1 MOL      0.098358
    108 H49        -0.2410   -1.7620   -1.6820 hc        1 MOL      0.098358
    109 H50        -1.5810   -1.4190   -4.0150 hc        1 MOL      0.106255
    110 H51        -2.1800   -0.0470   -4.8830 hc        1 MOL      0.106255
    111 H52        -0.5190   -0.4120   -5.1280 hc        1 MOL      0.106255
    112 N10         3.1360    1.4540   -1.8010 n         1 MOL     -0.499435
    113 C35         4.5020    1.7790   -1.5120 c3        1 MOL     -0.024531
    114 C36         5.3940    1.3310   -2.6340 c         1 MOL      0.649179
    115 O17         5.0070    1.2290   -3.7880 o         1 MOL     -0.561347
    116 C37         4.6200    3.2790   -1.3100 c3        1 MOL      0.443541
    117 C38         3.6660    3.8990   -0.2420 c3        1 MOL     -0.332260
    118 O18         5.8460    3.4740   -0.8400 oh        1 MOL     -0.659734
    119 H53         2.8480    1.7970   -2.7150 hn        1 MOL      0.254143
    120 H54         4.7210    1.2240   -0.5930 h1        1 MOL      0.099567
    121 H55         4.4910    3.8230   -2.2390 h1        1 MOL     -0.041616
    122 H56         5.9600    4.4120   -0.6900 ho        1 MOL      0.406624
    123 H57         2.6610    3.4860   -0.2930 hc        1 MOL      0.094568
    124 H58         4.0990    3.7190    0.7480 hc        1 MOL      0.094568
    125 H59         3.6550    4.9800   -0.3790 hc        1 MOL      0.094568
    126 N11         6.6270    0.9660   -2.3030 n         1 MOL     -0.595168
    127 C39         7.6510    0.4630   -3.2340 c3        1 MOL      0.149073
    128 C40         8.4270   -0.7580   -2.6520 c         1 MOL      0.630056
    129 O19         8.6410   -1.7480   -3.4010 o         1 MOL     -0.581659
    130 C41         8.6300    1.5950   -3.6020 c3        1 MOL      0.147242
    131 C42         9.6420    0.9350   -4.5300 c3        1 MOL     -0.238304
    132 O20         9.3400    2.2100   -2.4790 oh        1 MOL     -0.620764
    133 H60         6.8830    1.0720   -1.3290 hn        1 MOL      0.308730
    134 H61         7.1950    0.0200   -4.1160 h1        1 MOL      0.098824
    135 H62         8.0900    2.3490   -4.1820 h1        1 MOL      0.063067
    136 H63         9.8950    2.9170   -2.8180 ho        1 MOL      0.414280
    137 H64        10.3050    0.3650   -3.8730 hc        1 MOL      0.059895
    138 H65         9.1750    0.3850   -5.3520 hc        1 MOL      0.059895
    139 H66        10.3230    1.6920   -4.9300 hc        1 MOL      0.059895
    140 N12         8.6950   -0.7560   -1.3640 n         1 MOL     -0.594788
    141 C43         9.2760   -1.9240   -0.5330 c3        1 MOL      0.207898
    142 C44         8.4270   -2.3230    0.7030 c         1 MOL      0.599170
    143 O21         7.6880   -1.5140    1.2710 o         1 MOL     -0.498938
    144 C45        10.6910   -1.6130   -0.0700 c3        1 MOL      0.025402
    145 C46        11.5820   -1.2020   -1.2320 c3        1 MOL      0.002581
    146 C47        13.0400   -1.1220   -0.7790 c3        1 MOL     -0.016079
    147 C48        13.0980    0.1250    0.0790 c3        1 MOL      0.099763
    148 N13        14.4760    0.4250    0.3580 n4        1 MOL     -0.296510
    149 H67         8.3920    0.0520   -0.8320 hn        1 MOL      0.309051
    150 H68         9.4010   -2.7890   -1.1750 h1        1 MOL      0.054477
    151 H69        11.0700   -2.5210    0.3950 hc        1 MOL     -0.006172
    152 H70        10.6860   -0.8290    0.6870 hc        1 MOL     -0.006172
    153 H71        11.2590   -0.2790   -1.7100 hc        1 MOL      0.017000
    154 H72        11.4270   -2.0140   -1.9450 hc        1 MOL      0.017000
    155 H73        13.6830   -0.9020   -1.6220 hc        1 MOL      0.016419
    156 H74        13.3750   -2.0380   -0.3040 hc        1 MOL      0.016419
    157 H75        12.5620   -0.0580    1.0110 hx        1 MOL      0.055185
    158 H76        12.5270    0.8890   -0.4610 hx        1 MOL      0.055185
    159 H77        14.8290   -0.4190    0.7730 hn        1 MOL      0.268142
    160 H78        14.8900    0.5390   -0.5540 hn        1 MOL      0.268142
    161 H79        14.6100    1.3190    0.8020 hn        1 MOL      0.268142
    162 N14         8.5080   -3.5940    1.1320 n         1 MOL     -0.828871
    163 C49         7.5580   -4.1060    2.1340 c3        1 MOL      0.510265
    164 C50         6.0580   -3.9680    1.7630 c         1 MOL      0.266627
    165 O22         5.2660   -3.4550    2.5810 o         1 MOL     -0.519491
    166 C51         7.8820   -5.6010    2.4840 c3        1 MOL     -0.256504
    167 C52         9.0570   -5.8130    3.4530 c3        1 MOL     -0.081280
    168 C53         8.9920   -7.2750    4.0150 c         1 MOL      0.702907
    169 O23         9.0540   -7.4280    5.2440 o         1 MOL     -0.662748
    170 O24         8.9770   -8.1740    3.1200 o         1 MOL     -0.662748
    171 H80         9.2550   -4.1990    0.8190 hn        1 MOL      0.392566
    172 H81         7.5840   -3.5580    3.0720 h1        1 MOL      0.005244
    173 H82         7.9110   -6.1330    1.5330 hc        1 MOL      0.078624
    174 H83         6.9820   -5.8740    3.0410 hc        1 MOL      0.078624
    175 H84         8.9810   -5.1230    4.3040 hc        1 MOL     -0.001219
    176 H85        10.0320   -5.7110    2.9690 hc        1 MOL     -0.001219
    177 N15         5.5110   -4.3690    0.6440 n         1 MOL     -0.260823
    178 C54         6.1380   -5.1010   -0.4870 c3        1 MOL     -0.077339
    179 H86         7.2000   -5.2410   -0.2840 h1        1 MOL      0.052409
    180 H87         5.6590   -6.0740   -0.6010 h1        1 MOL      0.052409
    181 H88         6.0160   -4.5270   -1.4050 h1        1 MOL      0.052409
    182 H89         4.5080   -4.2830    0.5690 hn        1 MOL      0.284946
    183 Ca1        -6.2080   -5.2800    0.4490 Ca        1 MOL      1.693980
    184 O25        -3.6650   -5.5820   -0.9280 oh        1 MOL     -0.813436
    185 H90        -4.0990   -6.3220   -1.3540 ho        1 MOL      0.406458
    186 H91        -2.7480   -5.6590   -1.1940 ho        1 MOL      0.406458
    187 O26        -6.9790   -5.2390   -2.0970 oh        1 MOL     -0.813436
    188 H92        -6.9170   -5.8620   -2.8300 ho        1 MOL      0.406458
    189 H93        -6.9770   -4.3800   -2.5260 ho        1 MOL      0.406458
@<TRIPOS>BOND
     1    1    2 1   
     2    1    4 1   
     3    1    5 1   
     4    1    6 1   
     5    2    3 2   
     6    2    7 1   
     7    7    8 1   
     8    7   15 1   
     9    8    9 1   
    10    8   11 1   
    11    8   16 1   
    12    9   10 2   
    13    9   19 1   
    14   11   12 1   
    15   11   17 1   
    16   11   18 1   
    17   12   13 1   
    18   12   14 1   
    19   19   20 1   
    20   19   28 1   
    21   20   21 1   
    22   20   23 1   
    23   20   29 1   
    24   21   22 2   
    25   21   41 1   
    26   23   24 1   
    27   23   30 1   
    28   23   31 1   
    29   24   25 1   
    30   24   32 1   
    31   24   33 1   
    32   25   26 1   
    33   25   34 1   
    34   25   35 1   
    35   26   27 1   
    36   26   36 1   
    37   26   37 1   
    38   27   38 1   
    39   27   39 1   
    40   27   40 1   
    41   41   42 1   
    42   41   49 1   
    43   42   43 1   
    44   42   45 1   
    45   42   50 1   
    46   43   44 2   
    47   43   53 1   
    48   45   46 1   
    49   45   51 1   
    50   45   52 1   
    51   46   47 1   
    52   46   48 1   
    53   53   54 1   
    54   53   57 1   
    55   54   55 1   
    56   54   58 1   
    57   54   59 1   
    58   55   56 2   
    59   55   60 1   
    60   60   61 1   
    61   60   68 1   
    62   61   62 1   
    63   61   64 1   
    64   61   69 1   
    65   62   63 2   
    66   62   72 1   
    67   64   65 1   
    68   64   70 1   
    69   64   71 1   
    70   65   66 1   
    71   65   67 1   
    72   72   73 1   
    73   72   76 1   
    74   73   74 1   
    75   73   77 1   
    76   73   78 1   
    77   74   75 2   
    78   74   79 1   
    79   79   80 1   
    80   79   86 1   
    81   80   81 1   
    82   80   83 1   
    83   80   87 1   
    84   81   82 2   
    85   81   93 1   
    86   83   84 1   
    87   83   85 1   
    88   83   88 1   
    89   84   90 1   
    90   84   91 1   
    91   84   92 1   
    92   85   89 1   
    93   93   94 1   
    94   93  101 1   
    95   94   95 1   
    96   94   97 1   
    97   94  102 1   
    98   95   96 2   
    99   95  112 1   
   100   97   98 1   
   101   97   99 1   
   102   97  103 1   
   103   98  100 1   
   104   98  104 1   
   105   98  105 1   
   106   99  106 1   
   107   99  107 1   
   108   99  108 1   
   109  100  109 1   
   110  100  110 1   
   111  100  111 1   
   112  112  113 1   
   113  112  119 1   
   114  113  114 1   
   115  113  116 1   
   116  113  120 1   
   117  114  115 2   
   118  114  126 1   
   119  116  117 1   
   120  116  118 1   
   121  116  121 1   
   122  117  123 1   
   123  117  124 1   
   124  117  125 1   
   125  118  122 1   
   126  126  127 1   
   127  126  133 1   
   128  127  128 1   
   129  127  130 1   
   130  127  134 1   
   131  128  129 2   
   132  128  140 1   
   133  130  131 1   
   134  130  132 1   
   135  130  135 1   
   136  131  137 1   
   137  131  138 1   
   138  131  139 1   
   139  132  136 1   
   140  140  141 1   
   141  140  149 1   
   142  141  142 1   
   143  141  144 1   
   144  141  150 1   
   145  142  143 2   
   146  142  162 1   
   147  144  145 1   
   148  144  151 1   
   149  144  152 1   
   150  145  146 1   
   151  145  153 1   
   152  145  154 1   
   153  146  147 1   
   154  146  155 1   
   155  146  156 1   
   156  147  148 1   
   157  147  157 1   
   158  147  158 1   
   159  148  159 1   
   160  148  160 1   
   161  148  161 1   
   162  162  163 1   
   163  162  171 1   
   164  163  164 1   
   165  163  166 1   
   166  163  172 1   
   167  164  165 2   
   168  164  177 1   
   169  166  167 1   
   170  166  173 1   
   171  166  174 1   
   172  167  168 1   
   173  167  175 1   
   174  167  176 1   
   175  168  169 1   
   176  168  170 1   
   177  177  178 1   
   178  177  182 1   
   179  178  179 1   
   180  178  180 1   
   181  178  181 1   
   182  184  185 1   
   183  184  186 1   
   184  187  188 1   
   185  187  189 1   
@<TRIPOS>SUBSTRUCTURE
     1 MOL         1 TEMP              0 ****  ****    0 ROOT
