@<TRIPOS>MOLECULE
MOL
  184   179     1     0     0
SMALL
resp


@<TRIPOS>ATOM
      1 C1          9.9580    5.7440   -3.2930 c3        1 MOL     -0.377795
      2 C2          9.9830    5.5810   -1.7960 c         1 MOL      0.715231
      3 O1          9.9180    6.6090   -1.1050 o         1 MOL     -0.616507
      4 H1          9.3050    4.9890   -3.7290 hc        1 MOL      0.100774
      5 H2          9.5850    6.7370   -3.5440 hc        1 MOL      0.100774
      6 H3         10.9670    5.6240   -3.6890 hc        1 MOL      0.100774
      7 N1         10.0370    4.4060   -1.2380 n         1 MOL     -0.548270
      8 C3         10.2190    3.0640   -1.8690 c3        1 MOL      0.165274
      9 C4         11.3860    2.3680   -1.2460 c         1 MOL      0.431660
     10 O2         11.3880    2.0700   -0.0050 o         1 MOL     -0.628079
     11 C5          8.8900    2.2710   -1.8000 c3        1 MOL     -0.020480
     12 C6          8.0010    2.4070   -0.5730 c         1 MOL      0.615525
     13 O3          6.7650    2.5010   -0.7140 o         1 MOL     -0.648018
     14 O4          8.4940    2.3780    0.5740 o         1 MOL     -0.648018
     15 H4          9.9510    4.3120   -0.2360 hn        1 MOL      0.276344
     16 H5         10.5890    3.1950   -2.8830 h1        1 MOL     -0.000616
     17 H6          9.0660    1.1930   -1.8360 hc        1 MOL      0.007048
     18 H7          8.3080    2.5370   -2.6760 hc        1 MOL      0.007048
     19 N2         12.3460    1.9220   -2.0490 n         1 MOL     -0.504724
     20 C7         13.4840    0.9900   -1.7590 c3        1 MOL      0.451768
     21 C8         13.0790   -0.4830   -1.4000 c         1 MOL      0.340389
     22 O5         13.9890   -1.2610   -1.1070 o         1 MOL     -0.515710
     23 C9         14.5550    1.6250   -0.8920 c3        1 MOL     -0.054503
     24 H8         12.3120    2.1630   -3.0250 hn        1 MOL      0.292069
     25 H9         14.0230    0.8710   -2.6990 h1        1 MOL     -0.047558
     26 H10        15.4230    0.9630   -0.9200 hc        1 MOL      0.001938
     27 H11        14.8170    2.5710   -1.3770 hc        1 MOL      0.001938
     28 H12        14.2070    1.6840    0.1360 hc        1 MOL      0.001938
     29 N3         11.7810   -0.8260   -1.4150 n         1 MOL     -0.198620
     30 C10        11.2430   -2.1100   -1.1010 c3        1 MOL      0.069356
     31 C11        10.0180   -2.4990   -1.9120 c         1 MOL      0.488249
     32 O6          9.4410   -1.6010   -2.5040 o         1 MOL     -0.478171
     33 C12        11.0270   -2.3790    0.4570 c3        1 MOL      0.021200
     34 C13        10.7050   -1.1860    1.3230 c         1 MOL      0.755158
     35 O7          9.8210   -0.3970    0.8670 o         1 MOL     -0.736582
     36 O8         11.3020   -0.8840    2.3540 o         1 MOL     -0.736582
     37 H13        11.0910   -0.1580   -1.7110 hn        1 MOL      0.088894
     38 H14        12.0070   -2.7760   -1.4820 h1        1 MOL      0.018952
     39 H15        11.9630   -2.7190    0.9070 hc        1 MOL     -0.012872
     40 H16        10.3320   -3.1790    0.6900 hc        1 MOL     -0.012872
     41 N4          9.5760   -3.7880   -1.9570 n         1 MOL     -0.506638
     42 C14         8.1820   -4.1570   -2.2640 c3        1 MOL      0.070948
     43 C15         7.2380   -4.0620   -1.0230 c         1 MOL      0.458013
     44 O9          7.6380   -4.2350    0.1250 o         1 MOL     -0.449949
     45 H17        10.1720   -4.5030   -1.5710 hn        1 MOL      0.303953
     46 H18         8.0850   -5.1520   -2.6830 h1        1 MOL      0.060414
     47 H19         7.7770   -3.5490   -3.0720 h1        1 MOL      0.060414
     48 N5          5.9750   -3.6470   -1.3000 n         1 MOL     -0.492937
     49 C16         4.9480   -3.3930   -0.3370 c3        1 MOL      0.103452
     50 C17         3.5240   -3.8290   -0.8320 c         1 MOL      0.604274
     51 O10         3.2970   -4.2380   -1.9880 o         1 MOL     -0.544474
     52 C18         4.9880   -1.9040    0.0730 c3        1 MOL     -0.161802
     53 C19         6.3340   -1.5940    0.7470 c         1 MOL      0.652119
     54 N6          7.1690   -0.9490   -0.0340 n         1 MOL     -0.718609
     55 O11         6.5540   -1.8540    1.9510 o         1 MOL     -0.601717
     56 H20         5.7090   -3.5300   -2.2660 hn        1 MOL      0.280448
     57 H21         5.1630   -3.8980    0.6020 h1        1 MOL      0.079258
     58 H22         4.2360   -1.6260    0.8240 hc        1 MOL      0.053307
     59 H23         4.9320   -1.1970   -0.7540 hc        1 MOL      0.053307
     60 H24         7.0010   -0.6090   -0.9730 hn        1 MOL      0.363808
     61 H25         8.0840   -0.7520    0.3440 hn        1 MOL      0.363808
     62 N7          2.5100   -3.8140    0.0860 n         1 MOL     -0.694838
     63 C20         1.0980   -4.0720   -0.2030 c3        1 MOL      0.330698
     64 C21         0.2650   -4.7130    0.8890 c         1 MOL      0.476084
     65 O12         0.8310   -5.3040    1.8140 o         1 MOL     -0.564627
     66 H26         2.7510   -3.6130    1.0460 hn        1 MOL      0.338404
     67 H27         0.9610   -4.6710   -1.1000 h1        1 MOL      0.026104
     68 H28         0.6680   -3.1220   -0.5470 h1        1 MOL      0.026104
     69 N8         -1.0440   -4.6400    0.8740 n         1 MOL     -0.432729
     70 C22        -1.9100   -3.9350   -0.0620 c3        1 MOL     -0.264052
     71 C23        -3.0290   -3.1190    0.6520 c         1 MOL      0.624029
     72 O13        -3.4610   -3.4740    1.7670 o         1 MOL     -0.518968
     73 C24        -2.5890   -4.9360   -1.0090 c3        1 MOL      0.392960
     74 C25        -3.4060   -4.2650   -2.0890 c3        1 MOL     -0.186355
     75 O14        -1.5270   -5.5980   -1.6430 oh        1 MOL     -0.626596
     76 H29        -1.5600   -5.0600    1.6350 hn        1 MOL      0.322742
     77 H30        -1.3050   -3.3020   -0.7160 h1        1 MOL      0.156961
     78 H31        -3.2780   -5.6500   -0.5580 h1        1 MOL      0.013524
     79 H32        -1.7820   -6.5220   -1.7110 ho        1 MOL      0.388036
     80 H33        -2.7610   -3.6290   -2.6950 hc        1 MOL      0.048066
     81 H34        -3.6250   -5.0940   -2.7640 hc        1 MOL      0.048066
     82 H35        -4.3240   -3.8390   -1.6700 hc        1 MOL      0.048066
     83 N9         -3.3400   -1.9600    0.0440 n         1 MOL     -0.526712
     84 C26        -4.5230   -1.1820    0.4430 c3        1 MOL     -0.121554
     85 C27        -5.3830   -1.0380   -0.7700 c         1 MOL      0.609263
     86 O15        -4.9900   -0.5390   -1.8150 o         1 MOL     -0.585388
     87 C28        -4.0500    0.2410    0.9430 c3        1 MOL      0.113783
     88 C29        -3.0370    0.2240    2.1320 c3        1 MOL     -0.029759
     89 C30        -5.1780    1.0810    1.4970 c3        1 MOL     -0.151055
     90 C31        -2.6630    1.5810    2.7910 c3        1 MOL     -0.094112
     91 H36        -2.9420   -1.6990   -0.8450 hn        1 MOL      0.293617
     92 H37        -5.1660   -1.6340    1.1950 h1        1 MOL      0.142570
     93 H38        -3.5780    0.8160    0.1510 hc        1 MOL      0.041059
     94 H39        -2.0650   -0.1000    1.7670 hc        1 MOL      0.022319
     95 H40        -3.3640   -0.4060    2.9650 hc        1 MOL      0.022319
     96 H41        -5.9380    1.0620    0.7120 hc        1 MOL      0.048415
     97 H42        -5.6860    0.8730    2.4330 hc        1 MOL      0.048415
     98 H43        -4.8990    2.1360    1.5300 hc        1 MOL      0.048415
     99 H44        -3.5400    2.1140    3.1640 hc        1 MOL      0.016023
    100 H45        -1.8620    1.5070    3.5260 hc        1 MOL      0.016023
    101 H46        -2.3870    2.2110    1.9420 hc        1 MOL      0.016023
    102 N10        -6.6740   -1.3890   -0.7750 n         1 MOL     -0.418383
    103 C32        -7.5760   -1.6830    0.3530 c3        1 MOL      0.308141
    104 C33        -8.9420   -1.1190    0.0290 c         1 MOL      0.398523
    105 O16        -9.3570   -1.1940   -1.1220 o         1 MOL     -0.483008
    106 C34        -7.6490   -3.1990    0.4270 c3        1 MOL     -0.309001
    107 C35        -8.4380   -3.7860    1.6250 c         1 MOL      0.754086
    108 O17        -9.1230   -4.8290    1.4920 o         1 MOL     -0.717393
    109 O18        -8.3210   -3.2330    2.7450 o         1 MOL     -0.717393
    110 H47        -7.2010   -1.1210   -1.5850 hn        1 MOL      0.256756
    111 H48        -7.2170   -1.3700    1.3310 h1        1 MOL     -0.056728
    112 H49        -6.6330   -3.5790    0.4820 hc        1 MOL      0.056846
    113 H50        -8.0570   -3.5750   -0.5060 hc        1 MOL      0.056846
    114 N11        -9.7180   -0.6930    1.0290 n         1 MOL     -0.671636
    115 C36       -11.1480   -0.3400    0.7550 c3        1 MOL      0.479868
    116 C37       -11.8830    0.6040    1.7790 c         1 MOL      0.208728
    117 O19       -12.0860    0.1310    2.9200 o         1 MOL     -0.499909
    118 C38       -11.9000   -1.6920    0.5150 c3        1 MOL     -0.119682
    119 C39       -13.2280   -1.4890   -0.1530 ca        1 MOL     -0.026373
    120 C40       -14.3250   -0.9420    0.5370 ca        1 MOL     -0.057373
    121 C41       -13.4800   -1.7110   -1.5330 ca        1 MOL     -0.057373
    122 C42       -15.6130   -0.6760    0.0040 ca        1 MOL     -0.182859
    123 C43       -14.7600   -1.5380   -2.0540 ca        1 MOL     -0.182859
    124 C44       -15.8110   -0.9460   -1.3290 ca        1 MOL     -0.098880
    125 H51        -9.2730   -0.5240    1.9140 hn        1 MOL      0.376938
    126 H52       -11.0750    0.2160   -0.1770 h1        1 MOL     -0.071711
    127 H53       -11.9670   -2.2930    1.4180 hc        1 MOL      0.090567
    128 H54       -11.2790   -2.2430   -0.1990 hc        1 MOL      0.090567
    129 H55       -14.2070   -0.7990    1.5970 ha        1 MOL      0.102246
    130 H56       -12.7670   -2.2840   -2.1130 ha        1 MOL      0.102246
    131 H57       -16.3580   -0.1890    0.6190 ha        1 MOL      0.112190
    132 H58       -14.8990   -1.8980   -3.0670 ha        1 MOL      0.112190
    133 H59       -16.7380   -0.8470   -1.8740 ha        1 MOL      0.093794
    134 N12       -12.1820    1.8400    1.3690 n         1 MOL     -0.013534
    135 C45       -12.5380    2.2270   -0.0090 c3        1 MOL     -0.118165
    136 C46       -11.4270    3.0770   -0.7360 c         1 MOL      0.531906
    137 O20       -11.6000    3.4680   -1.8660 o         1 MOL     -0.525840
    138 C47       -13.8200    3.0450    0.3370 c3        1 MOL     -0.029990
    139 C48       -13.4820    3.8210    1.5750 c3        1 MOL     -0.076816
    140 C49       -12.6020    2.8180    2.4180 c3        1 MOL     -0.058058
    141 H60       -12.7890    1.2940   -0.5080 h1        1 MOL      0.142354
    142 H61       -14.2440    3.5540   -0.5280 hc        1 MOL      0.029941
    143 H62       -14.5330    2.2570    0.6010 hc        1 MOL      0.029941
    144 H63       -12.7880    4.6440    1.3920 hc        1 MOL      0.032308
    145 H64       -14.3460    4.1590    2.1430 hc        1 MOL      0.032308
    146 H65       -11.7720    3.2960    2.9360 h1        1 MOL      0.070369
    147 H66       -13.2970    2.3420    3.1040 h1        1 MOL      0.070369
    148 N13       -10.2600    3.3670   -0.1380 n         1 MOL     -0.404975
    149 C50        -9.1010    4.0740   -0.7040 c3        1 MOL      0.175959
    150 C51        -8.6310    5.2690    0.2230 c         1 MOL      0.400069
    151 O21        -8.9210    5.2540    1.4190 o         1 MOL     -0.559770
    152 C52        -7.9470    3.0160   -0.8430 c3        1 MOL      0.036237
    153 C53        -8.0400    1.8950   -1.9610 c3        1 MOL     -0.043770
    154 C54        -8.0320    2.2560   -3.4050 c         1 MOL      0.659971
    155 O22        -8.6210    1.4910   -4.1650 o         1 MOL     -0.693754
    156 O23        -7.7080    3.4160   -3.6500 o         1 MOL     -0.693754
    157 H67       -10.2040    3.2670    0.8630 hn        1 MOL      0.225898
    158 H68        -9.3000    4.3430   -1.7390 h1        1 MOL      0.108741
    159 H69        -7.8610    2.4660    0.0970 hc        1 MOL     -0.055804
    160 H70        -6.9900    3.4870   -1.0370 hc        1 MOL     -0.055804
    161 H71        -8.9160    1.2630   -1.7890 hc        1 MOL      0.029737
    162 H72        -7.1520    1.2800   -1.8010 hc        1 MOL      0.029737
    163 N14        -8.0660    6.3660   -0.2280 n         1 MOL     -0.379087
    164 C55        -7.7920    6.7110   -1.6320 c3        1 MOL     -0.027681
    165 H73        -8.6440    6.4250   -2.2480 h1        1 MOL      0.052116
    166 H74        -7.6270    7.7850   -1.7170 h1        1 MOL      0.052116
    167 H75        -6.9040    6.1790   -1.9710 h1        1 MOL      0.052116
    168 H76        -7.6580    6.9480    0.4890 hn        1 MOL      0.282030
    169 Ca1        10.2290    1.7500    2.2460 Ca        1 MOL      1.719127
    170 O24         8.0840    0.1750    3.1390 oh        1 MOL     -0.814215
    171 H77         7.7500   -0.5060    2.5490 ho        1 MOL      0.393549
    172 H78         7.7390   -0.0590    4.0030 ho        1 MOL      0.393549
    173 O25         8.3740    3.1860    3.5420 oh        1 MOL     -0.814215
    174 H79         8.0440    3.2370    4.4380 ho        1 MOL      0.393549
    175 H80         7.9310    3.9050    3.0850 ho        1 MOL      0.393549
    176 O26        12.8150    2.0270    2.3870 oh        1 MOL     -0.814215
    177 H81        13.3980    1.5430    1.8050 ho        1 MOL      0.393549
    178 H82        13.4040    2.5480    2.9420 ho        1 MOL      0.393549
    179 O27        10.8920    4.4580    2.4790 oh        1 MOL     -0.814215
    180 H83        10.4630    5.3220    2.5290 ho        1 MOL      0.393549
    181 H84        11.7820    4.6550    2.1860 ho        1 MOL      0.393549
    182 O28        10.8560    1.9900    4.8320 oh        1 MOL     -0.814215
    183 H85        11.7250    1.8780    5.2010 ho        1 MOL      0.393549
    184 H86        10.5870    2.8670    5.1000 ho        1 MOL      0.393549
@<TRIPOS>BOND
     1    1    2 1   
     2    1    4 1   
     3    1    5 1   
     4    1    6 1   
     5    2    3 2   
     6    2    7 1   
     7    7    8 1   
     8    7   15 1   
     9    8    9 1   
    10    8   11 1   
    11    8   16 1   
    12    9   10 2   
    13    9   19 1   
    14   11   12 1   
    15   11   17 1   
    16   11   18 1   
    17   12   13 1   
    18   12   14 1   
    19   19   20 1   
    20   19   24 1   
    21   20   21 1   
    22   20   23 1   
    23   20   25 1   
    24   21   22 2   
    25   21   29 1   
    26   23   26 1   
    27   23   27 1   
    28   23   28 1   
    29   29   30 1   
    30   29   37 1   
    31   30   31 1   
    32   30   33 1   
    33   30   38 1   
    34   31   32 2   
    35   31   41 1   
    36   33   34 1   
    37   33   39 1   
    38   33   40 1   
    39   34   35 1   
    40   34   36 1   
    41   41   42 1   
    42   41   45 1   
    43   42   43 1   
    44   42   46 1   
    45   42   47 1   
    46   43   44 2   
    47   43   48 1   
    48   48   49 1   
    49   48   56 1   
    50   49   50 1   
    51   49   52 1   
    52   49   57 1   
    53   50   51 2   
    54   50   62 1   
    55   52   53 1   
    56   52   58 1   
    57   52   59 1   
    58   53   54 1   
    59   53   55 2   
    60   54   60 1   
    61   54   61 1   
    62   62   63 1   
    63   62   66 1   
    64   63   64 1   
    65   63   67 1   
    66   63   68 1   
    67   64   65 2   
    68   64   69 1   
    69   69   70 1   
    70   69   76 1   
    71   70   71 1   
    72   70   73 1   
    73   70   77 1   
    74   71   72 2   
    75   71   83 1   
    76   73   74 1   
    77   73   75 1   
    78   73   78 1   
    79   74   80 1   
    80   74   81 1   
    81   74   82 1   
    82   75   79 1   
    83   83   84 1   
    84   83   91 1   
    85   84   85 1   
    86   84   87 1   
    87   84   92 1   
    88   85   86 2   
    89   85  102 1   
    90   87   88 1   
    91   87   89 1   
    92   87   93 1   
    93   88   90 1   
    94   88   94 1   
    95   88   95 1   
    96   89   96 1   
    97   89   97 1   
    98   89   98 1   
    99   90   99 1   
   100   90  100 1   
   101   90  101 1   
   102  102  103 1   
   103  102  110 1   
   104  103  104 1   
   105  103  106 1   
   106  103  111 1   
   107  104  105 2   
   108  104  114 1   
   109  106  107 1   
   110  106  112 1   
   111  106  113 1   
   112  107  108 1   
   113  107  109 1   
   114  114  115 1   
   115  114  125 1   
   116  115  116 1   
   117  115  118 1   
   118  115  126 1   
   119  116  117 2   
   120  116  134 1   
   121  118  119 1   
   122  118  127 1   
   123  118  128 1   
   124  119  120 ar  
   125  119  121 ar  
   126  120  122 ar  
   127  120  129 1   
   128  121  123 ar  
   129  121  130 1   
   130  122  124 ar  
   131  122  131 1   
   132  123  124 ar  
   133  123  132 1   
   134  124  133 1   
   135  134  135 1   
   136  134  140 1   
   137  135  136 1   
   138  135  138 1   
   139  135  141 1   
   140  136  137 2   
   141  136  148 1   
   142  138  139 1   
   143  138  142 1   
   144  138  143 1   
   145  139  140 1   
   146  139  144 1   
   147  139  145 1   
   148  140  146 1   
   149  140  147 1   
   150  148  149 1   
   151  148  157 1   
   152  149  150 1   
   153  149  152 1   
   154  149  158 1   
   155  150  151 2   
   156  150  163 1   
   157  152  153 1   
   158  152  159 1   
   159  152  160 1   
   160  153  154 1   
   161  153  161 1   
   162  153  162 1   
   163  154  155 1   
   164  154  156 1   
   165  163  164 1   
   166  163  168 1   
   167  164  165 1   
   168  164  166 1   
   169  164  167 1   
   170  170  171 1   
   171  170  172 1   
   172  173  174 1   
   173  173  175 1   
   174  176  177 1   
   175  176  178 1   
   176  179  180 1   
   177  179  181 1   
   178  182  183 1   
   179  182  184 1   
@<TRIPOS>SUBSTRUCTURE
     1 MOL         1 TEMP              0 ****  ****    0 ROOT
