@<TRIPOS>MOLECULE
MOL
  195   189     1     0     0
SMALL
resp


@<TRIPOS>ATOM
      1 C1         13.0310    3.3960   -2.8410 c3        1 MOL     -0.587448
      2 C2         12.2310    2.1720   -2.2650 c         1 MOL      0.570896
      3 O1         12.1300    1.0600   -2.9000 o         1 MOL     -0.594743
      4 H1         12.8590    3.4690   -3.9150 hc        1 MOL      0.162773
      5 H2         12.6940    4.3110   -2.3560 hc        1 MOL      0.162773
      6 H3         14.0970    3.2550   -2.6540 hc        1 MOL      0.162773
      7 N1         11.6620    2.3870   -1.1300 n         1 MOL     -0.088900
      8 C3         11.0380    1.2980   -0.3930 c3        1 MOL     -0.366942
      9 C4          9.5370    1.1070   -0.7060 c         1 MOL      0.595129
     10 O2          8.6850    1.9770   -0.6580 o         1 MOL     -0.668572
     11 C5         11.0440    1.5430    1.1290 c3        1 MOL     -0.091544
     12 C6         10.7560    2.9470    1.6420 c         1 MOL      0.759548
     13 O3         11.0370    3.1240    2.8380 o         1 MOL     -0.696461
     14 O4         10.2890    3.8380    0.9100 o         1 MOL     -0.696461
     15 H4         11.6080    3.3300   -0.7560 hn        1 MOL      0.105635
     16 H5         11.4850    0.3340   -0.6050 h1        1 MOL      0.169321
     17 H6         12.0530    1.3260    1.5010 hc        1 MOL      0.085014
     18 H7         10.3610    0.9240    1.7060 hc        1 MOL      0.085014
     19 N2          9.1550   -0.1940   -0.8380 n         1 MOL     -0.446417
     20 C7          7.7610   -0.6720   -1.0100 c3        1 MOL      0.029990
     21 C8          7.0260   -0.7170    0.3230 c         1 MOL      0.715540
     22 O5          7.5710   -1.1480    1.3480 o         1 MOL     -0.563557
     23 C9          7.8210   -2.0140   -1.6560 c3        1 MOL      0.054703
     24 C10         6.5190   -2.4080   -2.3150 c3        1 MOL     -0.093932
     25 C11         6.5340   -3.7250   -3.0890 c3        1 MOL     -0.011453
     26 C12         5.0520   -3.9950   -3.4260 c3        1 MOL      0.046668
     27 N3          5.0400   -4.6630   -4.7320 n4        1 MOL     -0.305726
     28 H8          9.9250   -0.8130   -1.0260 hn        1 MOL      0.269770
     29 H9          7.2730    0.0790   -1.6240 h1        1 MOL      0.079555
     30 H10         8.1100   -2.7900   -0.9490 hc        1 MOL      0.026409
     31 H11         8.5410   -2.0120   -2.4770 hc        1 MOL      0.026409
     32 H12         6.2090   -1.6180   -2.9960 hc        1 MOL     -0.015471
     33 H13         5.8450   -2.5510   -1.4640 hc        1 MOL     -0.015471
     34 H14         6.9280   -4.5330   -2.4690 hc        1 MOL      0.030000
     35 H15         7.1480   -3.6660   -3.9920 hc        1 MOL      0.030000
     36 H16         4.6370   -3.0200   -3.6830 hx        1 MOL      0.118254
     37 H17         4.3740   -4.4290   -2.6910 hx        1 MOL      0.118254
     38 H18         4.0840   -4.7980   -5.0400 hn        1 MOL      0.263937
     39 H19         5.5970   -4.0420   -5.3050 hn        1 MOL      0.263937
     40 H20         5.6140   -5.4900   -4.7290 hn        1 MOL      0.263937
     41 N4          5.8090   -0.2330    0.3440 n         1 MOL     -0.483818
     42 C13         4.9650   -0.0630    1.5330 c3        1 MOL     -0.054045
     43 C14         3.4470    0.2980    1.2160 c         1 MOL      0.493747
     44 O6          3.1840    1.0600    0.2930 o         1 MOL     -0.535630
     45 C15         5.5750    1.0590    2.4510 c3        1 MOL     -0.167293
     46 C16         6.3730    2.1740    1.7660 c         1 MOL      0.756517
     47 O7          5.7890    2.9120    0.9280 o         1 MOL     -0.745388
     48 O8          7.6000    2.3190    2.0160 o         1 MOL     -0.745388
     49 H21         5.4890    0.1980   -0.5140 hn        1 MOL      0.254201
     50 H22         4.9980   -0.9880    2.1180 h1        1 MOL      0.145193
     51 H23         6.2860    0.6390    3.1710 hc        1 MOL      0.082349
     52 H24         4.7810    1.3870    3.1290 hc        1 MOL      0.082349
     53 N5          2.4540   -0.2910    1.8570 n         1 MOL     -0.302367
     54 C17         2.6080   -1.0950    3.0680 c3        1 MOL      0.000124
     55 C18         2.8850   -2.5400    2.6750 c         1 MOL      0.321380
     56 O9          3.4360   -2.8500    1.5800 o         1 MOL     -0.490419
     57 H25         1.4990   -0.2680    1.5210 hn        1 MOL      0.274409
     58 H26         1.6690   -1.1410    3.6280 h1        1 MOL      0.038702
     59 H27         3.3750   -0.5750    3.6450 h1        1 MOL      0.038702
     60 N6          2.6340   -3.4570    3.6480 n         1 MOL     -0.211926
     61 C19         2.8850   -4.8690    3.5450 c3        1 MOL      0.031664
     62 C20         2.0620   -5.5440    2.4010 c         1 MOL      0.388070
     63 O10         2.5990   -6.4500    1.7390 o         1 MOL     -0.482527
     64 C21         2.7130   -5.5690    4.8860 c3        1 MOL     -0.305617
     65 C22         2.8160   -7.1040    4.8000 c         1 MOL      0.747281
     66 O11         3.8550   -7.7370    4.5020 o         1 MOL     -0.642435
     67 O12         1.7910   -7.7850    5.0320 o         1 MOL     -0.642435
     68 H28         2.3400   -3.0990    4.5450 hn        1 MOL      0.221884
     69 H29         3.9270   -4.8980    3.2270 h1        1 MOL      0.101299
     70 H30         1.7060   -5.3700    5.2530 hc        1 MOL      0.052932
     71 H31         3.4480   -5.1930    5.6010 hc        1 MOL      0.052932
     72 N7          0.8760   -5.0540    2.1820 n         1 MOL     -0.090831
     73 C23        -0.0550   -5.4960    1.1920 c3        1 MOL     -0.153059
     74 C24        -0.1840   -4.8410   -0.2020 c         1 MOL      0.518639
     75 O13        -1.2060   -5.0280   -0.8780 o         1 MOL     -0.539563
     76 H32         0.4990   -4.4050    2.8700 hn        1 MOL      0.185223
     77 H33        -1.0200   -5.4580    1.7010 h1        1 MOL      0.082454
     78 H34         0.0790   -6.5640    1.1060 h1        1 MOL      0.082454
     79 N8          0.7120   -3.9010   -0.4070 n         1 MOL     -0.311045
     80 C25         0.4510   -2.8840   -1.4530 c3        1 MOL     -0.022457
     81 C26        -0.1550   -1.5290   -0.8720 c         1 MOL      0.430349
     82 O14        -0.1800   -1.3450    0.3700 o         1 MOL     -0.443613
     83 C27         1.7180   -2.5930   -2.3800 c3        1 MOL      0.243335
     84 C28         2.9520   -2.0550   -1.6610 c3        1 MOL     -0.533596
     85 O15         2.1570   -3.7270   -2.9900 oh        1 MOL     -0.566185
     86 H35         1.5320   -3.8320    0.1660 hn        1 MOL      0.227423
     87 H36        -0.3280   -3.3040   -2.1010 h1        1 MOL      0.073058
     88 H37         1.3440   -1.8630   -3.0950 h1        1 MOL     -0.022999
     89 H38         1.4170   -4.0470   -3.5120 ho        1 MOL      0.384242
     90 H39         3.6150   -1.4870   -2.3090 hc        1 MOL      0.172920
     91 H40         2.6090   -1.3640   -0.8860 hc        1 MOL      0.172920
     92 H41         3.4460   -2.9200   -1.1970 hc        1 MOL      0.172920
     93 N9         -0.7210   -0.5900   -1.7060 n         1 MOL     -0.350344
     94 C29        -1.0900    0.8060   -1.2840 c3        1 MOL     -0.261327
     95 C30        -2.4680    0.8230   -0.5270 c         1 MOL      0.612114
     96 O16        -2.7400    1.7160    0.2590 o         1 MOL     -0.499525
     97 C31        -1.1870    1.6820   -2.5130 c3        1 MOL      0.259045
     98 C32         0.1180    1.4920   -3.2880 c3        1 MOL     -0.040181
     99 C33        -1.3940    3.2060   -2.3150 c3        1 MOL     -0.466344
    100 C34         0.2700    2.2880   -4.5930 c3        1 MOL     -0.141362
    101 H42        -0.7660   -0.8550   -2.6820 hn        1 MOL      0.265393
    102 H43        -0.2700    1.2400   -0.7140 h1        1 MOL      0.152884
    103 H44        -1.9300    1.2170   -3.1600 hc        1 MOL     -0.003260
    104 H45         0.2200    0.4780   -3.6740 hc        1 MOL      0.024877
    105 H46         0.8680    1.8780   -2.6000 hc        1 MOL      0.024877
    106 H47        -1.4520    3.8180   -3.2100 hc        1 MOL      0.134524
    107 H48        -2.3240    3.4480   -1.7870 hc        1 MOL      0.134524
    108 H49        -0.5690    3.5470   -1.7020 hc        1 MOL      0.134524
    109 H50         0.4490    3.3530   -4.4730 hc        1 MOL      0.032396
    110 H51         1.0300    1.8390   -5.2340 hc        1 MOL      0.032396
    111 H52        -0.6990    2.3400   -5.0900 hc        1 MOL      0.032396
    112 N10        -3.3180   -0.2040   -0.7910 n         1 MOL     -0.481762
    113 C35        -4.6060   -0.3650   -0.1980 c3        1 MOL      0.171318
    114 C36        -5.4730   -1.0810   -1.2280 c         1 MOL      0.524549
    115 O17        -5.0100   -1.6080   -2.2840 o         1 MOL     -0.535415
    116 C37        -4.4790   -1.2920    1.0390 c3        1 MOL      0.156055
    117 C38        -3.6920   -2.5860    0.7360 c3        1 MOL     -0.298393
    118 O18        -3.7640   -0.5160    1.9880 oh        1 MOL     -0.540600
    119 H53        -2.9680   -0.8740   -1.4560 hn        1 MOL      0.231363
    120 H54        -5.1270    0.5650    0.0100 h1        1 MOL      0.056456
    121 H55        -5.5110   -1.4960    1.2850 h1        1 MOL      0.014612
    122 H56        -3.6780   -1.1000    2.7490 ho        1 MOL      0.385667
    123 H57        -3.7650   -3.2560    1.5970 hc        1 MOL      0.092018
    124 H58        -4.2160   -3.1440   -0.0450 hc        1 MOL      0.092018
    125 H59        -2.6680   -2.4970    0.3890 hc        1 MOL      0.092018
    126 N11        -6.7920   -0.9080   -1.1120 n         1 MOL     -0.454789
    127 C39        -7.7690   -1.2050   -2.1740 c3        1 MOL     -0.028093
    128 C40        -9.0040   -0.3430   -2.0240 c         1 MOL      0.630338
    129 O19        -9.3410    0.2110   -3.0700 o         1 MOL     -0.552313
    130 C41        -8.1420   -2.7510   -2.2250 c3        1 MOL      0.242772
    131 C42        -8.9190   -3.0620   -3.5320 c3        1 MOL     -0.362731
    132 O20        -9.0300   -3.0440   -1.1460 oh        1 MOL     -0.674949
    133 H60        -7.1730   -0.4670   -0.2780 hn        1 MOL      0.251580
    134 H61        -7.3550   -1.0000   -3.1630 h1        1 MOL      0.124402
    135 H62        -7.2120   -3.3100   -2.1360 h1        1 MOL      0.076842
    136 H63        -9.2420   -3.9830   -1.1230 ho        1 MOL      0.415510
    137 H64        -9.9500   -2.7040   -3.5050 hc        1 MOL      0.098228
    138 H65        -8.4870   -2.4160   -4.3010 hc        1 MOL      0.098228
    139 H66        -8.8210   -4.0680   -3.9290 hc        1 MOL      0.098228
    140 N12        -9.5580   -0.1260   -0.8040 n         1 MOL     -0.457338
    141 C43       -10.7800    0.6090   -0.5310 c3        1 MOL     -0.094482
    142 C44       -10.5670    1.4360    0.7370 c         1 MOL      0.413795
    143 O21       -10.3530    0.8640    1.8160 o         1 MOL     -0.526546
    144 C45       -11.9520   -0.3930   -0.3000 c3        1 MOL     -0.243825
    145 C46       -12.5350   -0.7620   -1.6560 c3        1 MOL      0.020733
    146 C47       -13.8400   -1.5850   -1.4250 c3        1 MOL     -0.130800
    147 C48       -13.6350   -3.0450   -0.7750 c3        1 MOL      0.099743
    148 N13       -14.9320   -3.8650   -0.7860 n4        1 MOL     -0.182463
    149 H67        -9.2780   -0.6900   -0.0120 hn        1 MOL      0.341936
    150 H68       -10.9970    1.3020   -1.3480 h1        1 MOL      0.132642
    151 H69       -12.6870    0.0580    0.3600 hc        1 MOL      0.132769
    152 H70       -11.5010   -1.2120    0.2460 hc        1 MOL      0.132769
    153 H71       -11.7980   -1.3040   -2.2440 hc        1 MOL      0.057272
    154 H72       -12.7720    0.1020   -2.2690 hc        1 MOL      0.057272
    155 H73       -14.3480   -1.7350   -2.3830 hc        1 MOL      0.051333
    156 H74       -14.4370   -1.0810   -0.6560 hc        1 MOL      0.051333
    157 H75       -13.2370   -2.8000    0.2180 hx        1 MOL      0.049172
    158 H76       -12.9510   -3.6740   -1.3400 hx        1 MOL      0.049172
    159 H77       -15.6870   -3.4890   -0.2320 hn        1 MOL      0.201088
    160 H78       -15.3900   -3.9210   -1.6900 hn        1 MOL      0.201088
    161 H79       -14.7380   -4.7860   -0.4270 hn        1 MOL      0.201088
    162 N14       -10.6340    2.6820    0.5610 n         1 MOL     -0.276152
    163 C49       -10.3680    3.6990    1.5980 c3        1 MOL      0.093288
    164 C50        -8.8900    3.9470    1.9140 c         1 MOL      0.446128
    165 O22        -8.4930    3.9220    3.0180 o         1 MOL     -0.548251
    166 C51       -11.1160    5.0280    1.2490 c3        1 MOL     -0.057757
    167 C52       -11.2450    6.0280    2.4310 c3        1 MOL     -0.234990
    168 C53       -12.3990    7.0820    2.2510 c         1 MOL      0.713223
    169 O23       -13.0060    7.2930    1.1900 o         1 MOL     -0.647104
    170 O24       -12.6480    7.8280    3.2250 o         1 MOL     -0.647104
    171 H80       -10.9160    3.0270   -0.3420 hn        1 MOL      0.222569
    172 H81       -10.8200    3.3240    2.5220 h1        1 MOL      0.081144
    173 H82       -12.0880    4.7380    0.8600 hc        1 MOL      0.025799
    174 H83       -10.6420    5.6720    0.5080 hc        1 MOL      0.025799
    175 H84       -10.2950    6.5080    2.6260 hc        1 MOL      0.073053
    176 H85       -11.5110    5.4060    3.2880 hc        1 MOL      0.073053
    177 N15        -7.9790    4.1580    1.0030 n         1 MOL     -0.282551
    178 C54        -8.1390    4.6220   -0.4100 c3        1 MOL     -0.214050
    179 H86        -7.1560    4.7470   -0.8650 h1        1 MOL      0.098124
    180 H87        -8.7090    3.8830   -0.9740 h1        1 MOL      0.098124
    181 H88        -8.6680    5.5750   -0.4220 h1        1 MOL      0.098124
    182 H89        -7.0530    4.2270    1.4110 hn        1 MOL      0.280381
    183 Ca1         7.9170    4.2910    0.1330 Ca        1 MOL      1.764469
    184 O25         6.9070    5.2760    2.8830 oh        1 MOL     -0.854374
    185 H90         7.4250    5.6130    3.6070 ho        1 MOL      0.422936
    186 H91         6.0050    5.5480    3.0720 ho        1 MOL      0.422936
    187 O26         9.0000    6.7180    1.0260 oh        1 MOL     -0.854374
    188 H92         9.9560    6.6750    0.9630 ho        1 MOL      0.422936
    189 H93         8.8310    7.4010    1.6780 ho        1 MOL      0.422936
    190 O27         6.6540    3.6700   -2.3840 oh        1 MOL     -0.854374
    191 O28         9.0620    5.8630   -1.8460 oh        1 MOL     -0.854374
    192 H94         6.9060    3.8470   -3.2870 ho        1 MOL      0.422936
    193 H95         8.9930    5.4230   -2.6910 ho        1 MOL      0.422936
    194 H96         5.9670    3.0020   -2.4560 ho        1 MOL      0.422936
    195 H97         9.4470    6.7100   -2.0500 ho        1 MOL      0.422936
@<TRIPOS>BOND
     1    1    2 1   
     2    1    4 1   
     3    1    5 1   
     4    1    6 1   
     5    2    3 2   
     6    2    7 1   
     7    7    8 1   
     8    7   15 1   
     9    8    9 1   
    10    8   11 1   
    11    8   16 1   
    12    9   10 2   
    13    9   19 1   
    14   11   12 1   
    15   11   17 1   
    16   11   18 1   
    17   12   13 1   
    18   12   14 1   
    19   19   20 1   
    20   19   28 1   
    21   20   21 1   
    22   20   23 1   
    23   20   29 1   
    24   21   22 2   
    25   21   41 1   
    26   23   24 1   
    27   23   30 1   
    28   23   31 1   
    29   24   25 1   
    30   24   32 1   
    31   24   33 1   
    32   25   26 1   
    33   25   34 1   
    34   25   35 1   
    35   26   27 1   
    36   26   36 1   
    37   26   37 1   
    38   27   38 1   
    39   27   39 1   
    40   27   40 1   
    41   41   42 1   
    42   41   49 1   
    43   42   43 1   
    44   42   45 1   
    45   42   50 1   
    46   43   44 2   
    47   43   53 1   
    48   45   46 1   
    49   45   51 1   
    50   45   52 1   
    51   46   47 1   
    52   46   48 1   
    53   53   54 1   
    54   53   57 1   
    55   54   55 1   
    56   54   58 1   
    57   54   59 1   
    58   55   56 2   
    59   55   60 1   
    60   60   61 1   
    61   60   68 1   
    62   61   62 1   
    63   61   64 1   
    64   61   69 1   
    65   62   63 2   
    66   62   72 1   
    67   64   65 1   
    68   64   70 1   
    69   64   71 1   
    70   65   66 1   
    71   65   67 1   
    72   72   73 1   
    73   72   76 1   
    74   73   74 1   
    75   73   77 1   
    76   73   78 1   
    77   74   75 2   
    78   74   79 1   
    79   79   80 1   
    80   79   86 1   
    81   80   81 1   
    82   80   83 1   
    83   80   87 1   
    84   81   82 2   
    85   81   93 1   
    86   83   84 1   
    87   83   85 1   
    88   83   88 1   
    89   84   90 1   
    90   84   91 1   
    91   84   92 1   
    92   85   89 1   
    93   93   94 1   
    94   93  101 1   
    95   94   95 1   
    96   94   97 1   
    97   94  102 1   
    98   95   96 2   
    99   95  112 1   
   100   97   98 1   
   101   97   99 1   
   102   97  103 1   
   103   98  100 1   
   104   98  104 1   
   105   98  105 1   
   106   99  106 1   
   107   99  107 1   
   108   99  108 1   
   109  100  109 1   
   110  100  110 1   
   111  100  111 1   
   112  112  113 1   
   113  112  119 1   
   114  113  114 1   
   115  113  116 1   
   116  113  120 1   
   117  114  115 2   
   118  114  126 1   
   119  116  117 1   
   120  116  118 1   
   121  116  121 1   
   122  117  123 1   
   123  117  124 1   
   124  117  125 1   
   125  118  122 1   
   126  126  127 1   
   127  126  133 1   
   128  127  128 1   
   129  127  130 1   
   130  127  134 1   
   131  128  129 2   
   132  128  140 1   
   133  130  131 1   
   134  130  132 1   
   135  130  135 1   
   136  131  137 1   
   137  131  138 1   
   138  131  139 1   
   139  132  136 1   
   140  140  141 1   
   141  140  149 1   
   142  141  142 1   
   143  141  144 1   
   144  141  150 1   
   145  142  143 2   
   146  142  162 1   
   147  144  145 1   
   148  144  151 1   
   149  144  152 1   
   150  145  146 1   
   151  145  153 1   
   152  145  154 1   
   153  146  147 1   
   154  146  155 1   
   155  146  156 1   
   156  147  148 1   
   157  147  157 1   
   158  147  158 1   
   159  148  159 1   
   160  148  160 1   
   161  148  161 1   
   162  162  163 1   
   163  162  171 1   
   164  163  164 1   
   165  163  166 1   
   166  163  172 1   
   167  164  165 2   
   168  164  177 1   
   169  166  167 1   
   170  166  173 1   
   171  166  174 1   
   172  167  168 1   
   173  167  175 1   
   174  167  176 1   
   175  168  169 1   
   176  168  170 1   
   177  177  178 1   
   178  177  182 1   
   179  178  179 1   
   180  178  180 1   
   181  178  181 1   
   182  184  185 1   
   183  184  186 1   
   184  187  188 1   
   185  187  189 1   
   186  190  192 1   
   187  190  194 1   
   188  191  193 1   
   189  191  195 1   
@<TRIPOS>SUBSTRUCTURE
     1 MOL         1 TEMP              0 ****  ****    0 ROOT
