@<TRIPOS>MOLECULE
MOL
  181   177     1     0     0
SMALL
resp


@<TRIPOS>ATOM
      1 C1          4.3340   -1.3640    3.4540 c3        1 MOL     -0.327282
      2 C2          5.5500   -0.7900    2.7170 c         1 MOL      0.680711
      3 O1          5.4240   -0.0580    1.6780 o         1 MOL     -0.563628
      4 H1          4.6490   -2.2040    4.0720 hc        1 MOL      0.074582
      5 H2          3.8940   -0.5930    4.0860 hc        1 MOL      0.074582
      6 H3          3.5960   -1.7040    2.7280 hc        1 MOL      0.074582
      7 N1          6.7350   -1.0890    3.2400 n         1 MOL     -0.529386
      8 C3          8.1270   -0.6450    2.7020 c3        1 MOL      0.074950
      9 C4          8.1160   -1.0690    1.2430 c         1 MOL      0.611700
     10 O2          7.6020   -2.0860    0.8120 o         1 MOL     -0.573565
     11 C5          9.2460   -1.2780    3.5480 c3        1 MOL     -0.279824
     12 C6         10.6260   -0.8760    2.9860 c         1 MOL      0.707379
     13 O3         11.4390   -1.7520    2.6230 o         1 MOL     -0.715032
     14 O4         10.9150    0.3380    2.8390 o         1 MOL     -0.715032
     15 H4          6.7620   -1.8010    3.9590 hn        1 MOL      0.291380
     16 H5          8.0950    0.4390    2.7950 h1        1 MOL      0.051016
     17 H6          9.1120   -2.3680    3.5370 hc        1 MOL      0.048523
     18 H7          9.1310   -1.0300    4.6010 hc        1 MOL      0.048523
     19 N2          8.7710   -0.1770    0.5080 n         1 MOL     -0.429593
     20 C7          8.8400   -0.1330   -0.9620 c3        1 MOL      0.213325
     21 C8          7.4120   -0.0770   -1.5640 c         1 MOL      0.668504
     22 O5          6.6700    0.8870   -1.5220 o         1 MOL     -0.586860
     23 C9          9.7160    1.0110   -1.4010 c3        1 MOL     -0.375779
     24 H8          9.1130    0.6200    1.0310 hn        1 MOL      0.272397
     25 H9          9.3700   -1.0100   -1.3450 h1        1 MOL      0.039389
     26 H10        10.6870    0.9520   -0.9030 hc        1 MOL      0.095266
     27 H11         9.7120    0.9720   -2.4960 hc        1 MOL      0.095266
     28 H12         9.2490    1.9150   -1.0360 hc        1 MOL      0.095266
     29 N3          6.8780   -1.2230   -2.0110 n         1 MOL     -0.800410
     30 C10         5.4380   -1.3680   -2.1450 c3        1 MOL      0.515011
     31 C11         4.9470   -0.8180   -3.4900 c         1 MOL      0.597877
     32 O6          5.4630   -1.2160   -4.5090 o         1 MOL     -0.599405
     33 C12         5.1730   -2.8320   -1.8430 c3        1 MOL     -0.322334
     34 C13         3.7010   -3.1950   -1.7760 c         1 MOL      0.699286
     35 O7          3.2200   -4.3540   -1.9680 o         1 MOL     -0.759075
     36 O8          2.8500   -2.3310   -1.5370 o         1 MOL     -0.759075
     37 H13         7.3610   -2.1000   -1.8500 hn        1 MOL      0.308357
     38 H14         4.9380   -0.8030   -1.3480 h1        1 MOL      0.018074
     39 H15         5.6060   -3.1190   -0.8880 hc        1 MOL      0.082580
     40 H16         5.5320   -3.5030   -2.6240 hc        1 MOL      0.082580
     41 N4          3.8870   -0.0230   -3.6210 n         1 MOL     -0.332237
     42 C14         3.5240    0.7210   -4.8330 c3        1 MOL     -0.176263
     43 C15         2.3580    1.6800   -4.7770 c         1 MOL      0.636728
     44 O9          2.3760    2.6070   -5.5970 o         1 MOL     -0.602493
     45 H17         3.3680    0.0760   -2.7640 hn        1 MOL      0.177453
     46 H18         3.2460    0.0020   -5.6070 h1        1 MOL      0.095028
     47 H19         4.4160    1.2540   -5.1720 h1        1 MOL      0.095028
     48 N5          1.4150    1.5980   -3.8350 n         1 MOL     -0.377478
     49 C16         0.3820    2.6070   -3.6250 c3        1 MOL      0.021557
     50 C17         0.9600    3.8110   -2.9310 c         1 MOL      0.560675
     51 O10         1.8980    3.6440   -2.1510 o         1 MOL     -0.493158
     52 C18        -0.6860    1.8970   -2.7720 c3        1 MOL     -0.370605
     53 C19        -1.3930    0.7900   -3.4330 c         1 MOL      0.658450
     54 N6         -1.1310   -0.4240   -3.0230 n         1 MOL     -0.772706
     55 O11        -2.0940    0.9670   -4.4030 o         1 MOL     -0.598210
     56 H20         1.5360    0.7950   -3.2370 hn        1 MOL      0.297795
     57 H21        -0.0160    2.8700   -4.6040 h1        1 MOL      0.073632
     58 H22        -1.4150    2.6590   -2.4860 hc        1 MOL      0.118210
     59 H23        -0.2510    1.6130   -1.8080 hc        1 MOL      0.118210
     60 H24        -0.5950   -0.5160   -2.1660 hn        1 MOL      0.379143
     61 H25        -1.5340   -1.2320   -3.4700 hn        1 MOL      0.379143
     62 N7          0.2550    4.9350   -3.1320 n         1 MOL     -0.398497
     63 C20         0.4920    6.2340   -2.5420 c3        1 MOL     -0.017231
     64 C21        -0.5980    6.5300   -1.4840 c         1 MOL      0.466559
     65 O12        -1.8140    6.4260   -1.7770 o         1 MOL     -0.486617
     66 H26        -0.5830    4.7790   -3.6630 hn        1 MOL      0.267311
     67 H27         0.5740    7.0110   -3.3100 h1        1 MOL      0.073709
     68 H28         1.4440    6.2220   -2.0090 h1        1 MOL      0.073709
     69 N8         -0.1980    6.8850   -0.1920 n         1 MOL     -0.483807
     70 C22        -1.0880    7.3500    0.9050 c3        1 MOL     -0.032573
     71 C23        -1.6090    6.2380    1.8620 c         1 MOL      0.355999
     72 O13        -2.6530    6.4880    2.4740 o         1 MOL     -0.572974
     73 C24        -0.4030    8.4490    1.7030 c3        1 MOL      0.465219
     74 C25         0.8180    8.0580    2.5180 c3        1 MOL     -0.442303
     75 O14         0.0160    9.4440    0.7410 oh        1 MOL     -0.664499
     76 H29         0.8060    6.8850   -0.0760 hn        1 MOL      0.298031
     77 H30        -1.9930    7.8300    0.5290 h1        1 MOL      0.130945
     78 H31        -1.1330    8.9830    2.3130 h1        1 MOL      0.031631
     79 H32         0.8570    9.2530    0.3180 ho        1 MOL      0.378205
     80 H33         1.2220    9.0110    2.8550 hc        1 MOL      0.108772
     81 H34         0.5030    7.5340    3.4220 hc        1 MOL      0.108772
     82 H35         1.4730    7.4250    1.9140 hc        1 MOL      0.108772
     83 N9         -1.0320    5.0510    1.9580 n         1 MOL     -0.050391
     84 C26        -1.6600    3.7600    2.5420 c3        1 MOL      0.011487
     85 C27        -1.1500    2.6710    1.5640 c         1 MOL      0.235657
     86 O15        -0.0250    2.7170    1.0200 o         1 MOL     -0.426943
     87 C28        -1.3510    3.3950    4.0390 c3        1 MOL      0.214708
     88 C29         0.1070    3.3100    4.5300 c3        1 MOL      0.118865
     89 C30        -2.1660    4.3860    4.8560 c3        1 MOL     -0.285845
     90 C31         1.0010    4.5610    4.1830 c3        1 MOL     -0.126499
     91 H36        -0.1630    4.9990    1.4580 hn        1 MOL      0.168038
     92 H37        -2.7280    3.8400    2.3520 h1        1 MOL      0.087411
     93 H38        -1.7720    2.4160    4.3100 hc        1 MOL     -0.045813
     94 H39         0.5400    2.3520    4.2470 hc        1 MOL     -0.011392
     95 H40         0.0850    3.2020    5.6160 hc        1 MOL     -0.011392
     96 H41        -3.2150    4.1520    4.7300 hc        1 MOL      0.055790
     97 H42        -1.8760    4.3250    5.9070 hc        1 MOL      0.055790
     98 H43        -2.0090    5.4150    4.5180 hc        1 MOL      0.055790
     99 H44         1.2820    4.6300    3.1370 hc        1 MOL      0.016181
    100 H45         0.4230    5.4500    4.4100 hc        1 MOL      0.016181
    101 H46         1.8550    4.5050    4.8660 hc        1 MOL      0.016181
    102 N10        -1.9950    1.6210    1.3510 n         1 MOL     -0.400182
    103 C32        -1.7370    0.3810    0.5730 c3        1 MOL      0.244742
    104 C33        -3.0940   -0.1710   -0.1220 c         1 MOL      0.475350
    105 O16        -3.1610   -1.3840   -0.3130 o         1 MOL     -0.533371
    106 C34        -1.0240   -0.6080    1.4930 c3        1 MOL     -0.448378
    107 C35        -0.3600   -1.6810    0.6590 c         1 MOL      0.873902
    108 O17        -0.0030   -2.7140    1.1770 o         1 MOL     -0.745049
    109 O18        -0.0510   -1.4890   -0.5220 o         1 MOL     -0.745049
    110 H47        -2.9070    1.6610    1.7950 hn        1 MOL      0.234806
    111 H48        -1.0960    0.6590   -0.2570 h1        1 MOL      0.056305
    112 H49        -1.7740   -1.0660    2.1380 hc        1 MOL      0.145495
    113 H50        -0.2320   -0.0250    1.9550 hc        1 MOL      0.145495
    114 N11        -4.0590    0.6800   -0.4510 n         1 MOL     -0.382996
    115 C36        -5.3930    0.2440   -0.9140 c3        1 MOL      0.111552
    116 C37        -6.0280   -0.7170    0.1270 c         1 MOL      0.097398
    117 O19        -5.9270   -0.4580    1.3130 o         1 MOL     -0.477349
    118 C38        -6.2200    1.5400   -0.9940 c3        1 MOL     -0.224749
    119 C39        -7.7270    1.2780   -1.3230 ca        1 MOL      0.082378
    120 C40        -8.1390    1.7420   -2.5470 ca        1 MOL     -0.118015
    121 C41        -8.6490    0.8860   -0.3080 ca        1 MOL     -0.118015
    122 C42        -9.5020    1.5980   -2.8870 ca        1 MOL     -0.124458
    123 C43        -9.9790    0.8190   -0.6080 ca        1 MOL     -0.124458
    124 C44       -10.4220    1.0670   -1.9410 ca        1 MOL     -0.135354
    125 H51        -3.8850    1.6720   -0.4210 hn        1 MOL      0.239670
    126 H52        -5.2390   -0.2220   -1.8820 h1        1 MOL      0.061482
    127 H53        -5.7350    2.2450   -1.6640 hc        1 MOL      0.107022
    128 H54        -6.2060    2.1230   -0.0710 hc        1 MOL      0.107022
    129 H55        -7.4760    2.3260   -3.1660 ha        1 MOL      0.113308
    130 H56        -8.2290    0.6580    0.6640 ha        1 MOL      0.113308
    131 H57        -9.9150    1.9170   -3.8350 ha        1 MOL      0.107720
    132 H58       -10.7810    0.4590    0.0300 ha        1 MOL      0.107720
    133 H59       -11.4170    0.7980   -2.2430 ha        1 MOL      0.114466
    134 N12        -6.5830   -1.8210   -0.2710 n         1 MOL      0.301593
    135 C45        -7.4800   -2.6120    0.6370 c3        1 MOL     -0.163439
    136 C46        -6.6550   -3.5390    1.5970 c         1 MOL      0.591102
    137 O20        -7.1840   -4.1020    2.5250 o         1 MOL     -0.576153
    138 C47        -8.3060   -3.3590   -0.4530 c3        1 MOL     -0.039746
    139 C48        -7.3100   -3.6320   -1.5570 c3        1 MOL     -0.075835
    140 C49        -6.4280   -2.3470   -1.5540 c3        1 MOL     -0.049102
    141 H60        -8.1010   -1.9390    1.2300 h1        1 MOL      0.096979
    142 H61        -8.7900   -4.2510   -0.0730 hc        1 MOL      0.030959
    143 H62        -9.0630   -2.6420   -0.7610 hc        1 MOL      0.030959
    144 H63        -6.6610   -4.4670   -1.3080 hc        1 MOL      0.033455
    145 H64        -7.7860   -3.6730   -2.5460 hc        1 MOL      0.033455
    146 H65        -5.3930   -2.6620   -1.7060 h1        1 MOL      0.020070
    147 H66        -6.8440   -1.6720   -2.3010 h1        1 MOL      0.020070
    148 N13        -5.3350   -3.5160    1.5100 n         1 MOL     -0.487239
    149 C50        -4.3990   -4.1480    2.4150 c3        1 MOL     -0.162429
    150 C51        -3.8370   -3.4020    3.6700 c         1 MOL      0.456248
    151 O21        -3.0250   -3.9560    4.4280 o         1 MOL     -0.533418
    152 C52        -3.2040   -4.6770    1.6530 c3        1 MOL      0.243773
    153 C53        -3.3600   -5.3380    0.2700 c3        1 MOL     -0.085935
    154 C54        -2.0210   -5.7460   -0.3280 c         1 MOL      0.728220
    155 O22        -1.6810   -6.8890   -0.0990 o         1 MOL     -0.742062
    156 O23        -1.3690   -4.9000   -0.9210 o         1 MOL     -0.742062
    157 H67        -4.8990   -3.0500    0.7220 hn        1 MOL      0.454563
    158 H68        -4.8670   -5.0430    2.8500 h1        1 MOL      0.137797
    159 H69        -2.7950   -5.4580    2.2940 hc        1 MOL     -0.061919
    160 H70        -2.5040   -3.8500    1.5160 hc        1 MOL     -0.061919
    161 H71        -3.7780   -4.5870   -0.3900 hc        1 MOL     -0.022231
    162 H72        -4.0890   -6.1430    0.3110 hc        1 MOL     -0.022231
    163 N14        -4.3830   -2.2590    4.0100 n         1 MOL     -0.125297
    164 C55        -4.0840   -1.5160    5.2340 c3        1 MOL     -0.339290
    165 H73        -4.2150   -0.4500    5.0510 h1        1 MOL      0.125689
    166 H74        -4.7600   -1.8340    6.0280 h1        1 MOL      0.125689
    167 H75        -3.0540   -1.7090    5.5340 h1        1 MOL      0.125689
    168 H76        -4.9710   -1.7720    3.3530 hn        1 MOL      0.177383
    169 Ca1         1.0170   -4.0390   -0.7170 Ca        1 MOL      1.782716
    170 O24         1.1440   -6.6810   -1.4970 oh        1 MOL     -0.851092
    171 H77         0.2240   -6.8560   -1.6720 ho        1 MOL      0.410110
    172 H78         1.5830   -7.5240   -1.6120 ho        1 MOL      0.410110
    173 O25         0.6260   -3.8480   -3.2840 oh        1 MOL     -0.851092
    174 H79         0.1180   -4.3660   -3.9100 ho        1 MOL      0.410110
    175 H80         1.4370   -3.6510   -3.7490 ho        1 MOL      0.410110
    176 O26         2.9570   -3.6810    1.0420 oh        1 MOL     -0.851092
    177 H81         3.8810   -3.8950    1.1620 ho        1 MOL      0.410110
    178 H82         2.5540   -3.8730    1.8900 ho        1 MOL      0.410110
    179 O27         0.5300   -5.8200    1.3900 oh        1 MOL     -0.851092
    180 H83         0.1070   -5.6240    2.2280 ho        1 MOL      0.410110
    181 H84        -0.1000   -6.3600    0.9170 ho        1 MOL      0.410110
@<TRIPOS>BOND
     1    1    2 1   
     2    1    4 1   
     3    1    5 1   
     4    1    6 1   
     5    2    3 2   
     6    2    7 1   
     7    7    8 1   
     8    7   15 1   
     9    8    9 1   
    10    8   11 1   
    11    8   16 1   
    12    9   10 2   
    13    9   19 1   
    14   11   12 1   
    15   11   17 1   
    16   11   18 1   
    17   12   13 1   
    18   12   14 1   
    19   19   20 1   
    20   19   24 1   
    21   20   21 1   
    22   20   23 1   
    23   20   25 1   
    24   21   22 2   
    25   21   29 1   
    26   23   26 1   
    27   23   27 1   
    28   23   28 1   
    29   29   30 1   
    30   29   37 1   
    31   30   31 1   
    32   30   33 1   
    33   30   38 1   
    34   31   32 2   
    35   31   41 1   
    36   33   34 1   
    37   33   39 1   
    38   33   40 1   
    39   34   35 1   
    40   34   36 1   
    41   41   42 1   
    42   41   45 1   
    43   42   43 1   
    44   42   46 1   
    45   42   47 1   
    46   43   44 2   
    47   43   48 1   
    48   48   49 1   
    49   48   56 1   
    50   49   50 1   
    51   49   52 1   
    52   49   57 1   
    53   50   51 2   
    54   50   62 1   
    55   52   53 1   
    56   52   58 1   
    57   52   59 1   
    58   53   54 1   
    59   53   55 2   
    60   54   60 1   
    61   54   61 1   
    62   62   63 1   
    63   62   66 1   
    64   63   64 1   
    65   63   67 1   
    66   63   68 1   
    67   64   65 2   
    68   64   69 1   
    69   69   70 1   
    70   69   76 1   
    71   70   71 1   
    72   70   73 1   
    73   70   77 1   
    74   71   72 2   
    75   71   83 1   
    76   73   74 1   
    77   73   75 1   
    78   73   78 1   
    79   74   80 1   
    80   74   81 1   
    81   74   82 1   
    82   75   79 1   
    83   83   84 1   
    84   83   91 1   
    85   84   85 1   
    86   84   87 1   
    87   84   92 1   
    88   85   86 2   
    89   85  102 1   
    90   87   88 1   
    91   87   89 1   
    92   87   93 1   
    93   88   90 1   
    94   88   94 1   
    95   88   95 1   
    96   89   96 1   
    97   89   97 1   
    98   89   98 1   
    99   90   99 1   
   100   90  100 1   
   101   90  101 1   
   102  102  103 1   
   103  102  110 1   
   104  103  104 1   
   105  103  106 1   
   106  103  111 1   
   107  104  105 2   
   108  104  114 1   
   109  106  107 1   
   110  106  112 1   
   111  106  113 1   
   112  107  108 1   
   113  107  109 1   
   114  114  115 1   
   115  114  125 1   
   116  115  116 1   
   117  115  118 1   
   118  115  126 1   
   119  116  117 2   
   120  116  134 1   
   121  118  119 1   
   122  118  127 1   
   123  118  128 1   
   124  119  120 ar  
   125  119  121 ar  
   126  120  122 ar  
   127  120  129 1   
   128  121  123 ar  
   129  121  130 1   
   130  122  124 ar  
   131  122  131 1   
   132  123  124 ar  
   133  123  132 1   
   134  124  133 1   
   135  134  135 1   
   136  134  140 1   
   137  135  136 1   
   138  135  138 1   
   139  135  141 1   
   140  136  137 2   
   141  136  148 1   
   142  138  139 1   
   143  138  142 1   
   144  138  143 1   
   145  139  140 1   
   146  139  144 1   
   147  139  145 1   
   148  140  146 1   
   149  140  147 1   
   150  148  149 1   
   151  148  157 1   
   152  149  150 1   
   153  149  152 1   
   154  149  158 1   
   155  150  151 2   
   156  150  163 1   
   157  152  153 1   
   158  152  159 1   
   159  152  160 1   
   160  153  154 1   
   161  153  161 1   
   162  153  162 1   
   163  154  155 1   
   164  154  156 1   
   165  163  164 1   
   166  163  168 1   
   167  164  165 1   
   168  164  166 1   
   169  164  167 1   
   170  170  171 1   
   171  170  172 1   
   172  173  174 1   
   173  173  175 1   
   174  176  177 1   
   175  176  178 1   
   176  179  180 1   
   177  179  181 1   
@<TRIPOS>SUBSTRUCTURE
     1 MOL         1 TEMP              0 ****  ****    0 ROOT
