@<TRIPOS>MOLECULE
MOL
  182   178     1     0     0
SMALL
resp


@<TRIPOS>ATOM
      1 C1          0.1160   -3.7650    5.9620 c3        1 MOL     -0.394252
      2 C2          0.3340   -3.6940    4.3980 c         1 MOL      0.647436
      3 O1         -0.5930   -3.4860    3.6790 o         1 MOL     -0.513693
      4 H1         -0.8100   -4.2970    6.1760 hc        1 MOL      0.117879
      5 H2          0.9520   -4.2920    6.4230 hc        1 MOL      0.117879
      6 H3          0.0560   -2.7550    6.3670 hc        1 MOL      0.117879
      7 N1          1.5760   -3.7530    3.8930 n         1 MOL     -0.493740
      8 C3          1.9360   -3.4050    2.5850 c3        1 MOL      0.128622
      9 C4          1.9640   -4.5650    1.5680 c         1 MOL      0.502427
     10 O2          2.0880   -5.7480    1.9730 o         1 MOL     -0.574820
     11 C5          3.2690   -2.5380    2.6730 c3        1 MOL     -0.156879
     12 C6          3.5360   -1.5920    1.4740 c         1 MOL      0.433418
     13 O3          4.1550   -0.5500    1.6180 o         1 MOL     -0.561179
     14 O4          3.2260   -1.9250    0.2900 o         1 MOL     -0.561179
     15 H4          2.3380   -4.0300    4.4920 hn        1 MOL      0.295489
     16 H5          1.2070   -2.6840    2.2080 h1        1 MOL     -0.102269
     17 H6          4.1320   -3.2090    2.6170 hc        1 MOL      0.089920
     18 H7          3.2930   -2.0060    3.6230 hc        1 MOL      0.089920
     19 N2          1.8610   -4.3410    0.2670 n         1 MOL     -0.181488
     20 C7          1.8920   -5.3560   -0.8280 c3        1 MOL     -0.121192
     21 C8          3.1760   -5.1840   -1.6990 c         1 MOL      0.512993
     22 O5          3.4960   -5.9530   -2.6540 o         1 MOL     -0.543675
     23 C9          0.5620   -5.3220   -1.6580 c3        1 MOL      0.131408
     24 C10        -0.6440   -5.9880   -0.9880 c3        1 MOL      0.064275
     25 C11        -1.8790   -6.1410   -1.9630 c3        1 MOL      0.153764
     26 C12        -2.8020   -7.2270   -1.3790 c3        1 MOL     -0.085535
     27 N3         -4.0310   -7.3150   -2.2330 n4        1 MOL     -0.062544
     28 H8          1.7030   -3.3640    0.0690 hn        1 MOL      0.163288
     29 H9          1.8100   -6.3550   -0.4050 h1        1 MOL      0.114363
     30 H10         0.8260   -5.9080   -2.5360 hc        1 MOL     -0.048130
     31 H11         0.3140   -4.2880   -1.9070 hc        1 MOL     -0.048130
     32 H12        -0.9760   -5.4310   -0.1140 hc        1 MOL     -0.003927
     33 H13        -0.2960   -6.9840   -0.7310 hc        1 MOL     -0.003927
     34 H14        -1.5320   -6.4210   -2.9600 hc        1 MOL     -0.025093
     35 H15        -2.3860   -5.1750   -2.0630 hc        1 MOL     -0.025093
     36 H16        -2.9960   -7.0050   -0.3320 hx        1 MOL      0.090780
     37 H17        -2.2210   -8.1150   -1.5890 hx        1 MOL      0.090780
     38 H18        -4.5240   -6.4240   -2.2510 hn        1 MOL      0.194909
     39 H19        -3.9610   -7.5470   -3.2090 hn        1 MOL      0.194909
     40 H20        -4.7330   -7.9580   -1.9100 hn        1 MOL      0.194909
     41 N4          3.9810   -4.1050   -1.4850 n         1 MOL     -0.485721
     42 C13         5.2780   -3.8900   -2.1800 c3        1 MOL      0.185912
     43 C14         6.3280   -3.2050   -1.2480 c         1 MOL      0.270820
     44 O6          7.5370   -3.1740   -1.6220 o         1 MOL     -0.491478
     45 C15         5.0650   -2.9980   -3.4610 c3        1 MOL     -0.291617
     46 C16         4.4470   -1.6430   -3.1680 c         1 MOL      0.851242
     47 O7          4.7580   -0.9830   -2.1560 o         1 MOL     -0.742513
     48 O8          3.4860   -1.2840   -3.8600 o         1 MOL     -0.742513
     49 H21         3.5420   -3.3330   -1.0100 hn        1 MOL      0.337623
     50 H22         5.7280   -4.8290   -2.5100 h1        1 MOL      0.116074
     51 H23         4.4750   -3.5530   -4.2010 hc        1 MOL      0.081507
     52 H24         6.0420   -2.9590   -3.9490 hc        1 MOL      0.081507
     53 N5          5.9430   -2.8040   -0.0230 n         1 MOL     -0.019729
     54 C17         6.8310   -2.4170    1.0410 c3        1 MOL     -0.181246
     55 C18         7.1850   -0.9500    1.0860 c         1 MOL      0.596119
     56 O9          7.6200   -0.4910    2.1830 o         1 MOL     -0.576573
     57 H25         4.9520   -2.6160    0.0580 hn        1 MOL     -0.077652
     58 H26         7.7600   -2.9740    1.1760 h1        1 MOL      0.109642
     59 H27         6.2680   -2.5850    1.9620 h1        1 MOL      0.109642
     60 N6          7.1310   -0.1980   -0.0540 n         1 MOL     -0.397652
     61 C19         7.4510    1.2440   -0.0690 c3        1 MOL      0.171801
     62 C20         6.3290    2.1260    0.3820 c         1 MOL      0.507986
     63 O10         5.1720    1.7970    0.1250 o         1 MOL     -0.457735
     64 C21         7.8310    1.5600   -1.4940 c3        1 MOL     -0.392052
     65 C22         9.2120    0.9460   -1.9580 c         1 MOL      0.676313
     66 N7         10.2690    1.6900   -2.1700 n         1 MOL     -0.779790
     67 O11         9.2120   -0.2910   -2.2130 o         1 MOL     -0.499642
     68 H28         6.7480   -0.6820   -0.8550 hn        1 MOL      0.285911
     69 H29         8.2900    1.4890    0.5900 h1        1 MOL      0.032872
     70 H30         7.7780    2.6360   -1.6540 hc        1 MOL      0.086621
     71 H31         6.9770    1.1840   -2.0540 hc        1 MOL      0.086621
     72 H32        10.0860    2.6820   -2.2900 hn        1 MOL      0.366346
     73 H33        11.1730    1.2850   -2.3370 hn        1 MOL      0.366346
     74 N8          6.6020    3.3800    0.7410 n         1 MOL     -0.440200
     75 C23         5.6220    4.4600    0.5820 c3        1 MOL     -0.101402
     76 C24         4.4570    4.3320    1.4480 c         1 MOL      0.679799
     77 O12         4.4960    4.0960    2.6630 o         1 MOL     -0.495251
     78 H34         7.5480    3.6710    0.9530 hn        1 MOL      0.312722
     79 H35         5.2310    4.4170   -0.4380 h1        1 MOL      0.077802
     80 H36         6.0870    5.4320    0.7250 h1        1 MOL      0.077802
     81 N9          3.3380    4.6310    0.6820 n         1 MOL     -0.663340
     82 C25         1.9570    4.5680    1.0590 c3        1 MOL      0.084673
     83 C26         1.5440    3.1100    1.2330 c         1 MOL      0.470628
     84 O13         2.3120    2.2340    0.8010 o         1 MOL     -0.473776
     85 C27         1.1320    5.2170   -0.0450 c3        1 MOL     -0.134095
     86 C28         1.3680    6.6910   -0.3890 ca        1 MOL      0.072922
     87 C29         1.4480    7.6600    0.5770 ca        1 MOL     -0.123485
     88 C30         1.3490    7.0860   -1.7540 ca        1 MOL     -0.123485
     89 C31         1.5880    9.0350    0.1910 ca        1 MOL     -0.293307
     90 C32         1.4220    8.4290   -2.1140 ca        1 MOL     -0.293307
     91 C33         1.5820    9.4230   -1.1340 ca        1 MOL      0.388666
     92 O14         1.7820   10.7460   -1.4350 oh        1 MOL     -0.512852
     93 H37         3.5080    4.6970   -0.3060 hn        1 MOL      0.312966
     94 H38         1.8240    5.0650    2.0210 h1        1 MOL      0.103385
     95 H39         0.0880    5.1560    0.2590 hc        1 MOL      0.045791
     96 H40         1.2640    4.5890   -0.9280 hc        1 MOL      0.045791
     97 H41         1.4900    7.3920    1.6270 ha        1 MOL      0.120031
     98 H42         1.2980    6.3350   -2.5300 ha        1 MOL      0.120031
     99 H43         1.6030    9.8300    0.9190 ha        1 MOL      0.162789
    100 H44         1.3140    8.7220   -3.1440 ha        1 MOL      0.162789
    101 H45         1.8760   11.3700   -0.7230 ho        1 MOL      0.383491
    102 N10         0.4360    2.8640    1.9550 n         1 MOL     -0.546465
    103 C34         0.1080    1.5450    2.4010 c3        1 MOL      0.009284
    104 C35        -0.2040    0.4210    1.3180 c         1 MOL      0.357467
    105 O15         0.6620    0.0330    0.6000 o         1 MOL     -0.336622
    106 C36         1.0460    0.9590    3.5420 c3        1 MOL      0.491424
    107 C37         0.3840   -0.3260    4.1780 c3        1 MOL     -0.161826
    108 C38         1.5480    2.0190    4.5710 c3        1 MOL     -0.297869
    109 C39        -0.9180   -0.1180    4.8710 c3        1 MOL     -0.170194
    110 H46        -0.0550    3.6510    2.3450 hn        1 MOL      0.346464
    111 H47        -0.8650    1.7460    2.8550 h1        1 MOL      0.010366
    112 H48         1.9550    0.6190    3.0510 hc        1 MOL     -0.073361
    113 H49         1.0330   -0.8650    4.8610 hc        1 MOL      0.059368
    114 H50         0.2210   -1.0150    3.3440 hc        1 MOL      0.059368
    115 H51         0.7640    2.3080    5.2680 hc        1 MOL      0.062483
    116 H52         2.2780    1.3460    5.0310 hc        1 MOL      0.062483
    117 H53         1.8690    2.9060    4.0320 hc        1 MOL      0.062483
    118 H54        -1.7340    0.1790    4.2100 hc        1 MOL      0.038719
    119 H55        -1.3270   -1.1060    5.1220 hc        1 MOL      0.038719
    120 H56        -0.8640    0.6630    5.6210 hc        1 MOL      0.038719
    121 N11        -1.4320   -0.0720    1.2500 n         1 MOL     -0.286367
    122 C40        -1.8410   -1.0320    0.1960 c3        1 MOL     -0.216159
    123 C41        -3.3060   -0.8430   -0.2980 c         1 MOL      0.573820
    124 O16        -3.8180   -1.6850   -1.0400 o         1 MOL     -0.512174
    125 C42        -1.6130   -2.5180    0.5880 c3        1 MOL      0.403108
    126 O17        -2.4130   -2.8660    1.7400 oh        1 MOL     -0.600713
    127 H57        -2.0690    0.0560    2.0300 hn        1 MOL      0.294987
    128 H58        -1.2330   -0.8660   -0.6880 h1        1 MOL      0.111098
    129 H59        -0.5530   -2.7310    0.7290 h1        1 MOL     -0.053047
    130 H60        -1.9830   -3.1210   -0.2440 h1        1 MOL     -0.053047
    131 H61        -1.8040   -3.1650    2.4190 ho        1 MOL      0.366323
    132 N12        -4.0510    0.1070    0.3340 n         1 MOL     -0.544884
    133 C43        -5.4140    0.4480   -0.0830 c3        1 MOL      0.390953
    134 C44        -5.4560    0.9470   -1.4690 c         1 MOL      0.445602
    135 O18        -4.5120    1.5790   -1.9760 o         1 MOL     -0.593866
    136 C45        -6.0930    1.3820    0.9400 c3        1 MOL     -0.335279
    137 H62        -3.6500    0.7860    0.9700 hn        1 MOL      0.239566
    138 H63        -6.0120   -0.4560    0.0430 h1        1 MOL      0.039264
    139 H64        -5.4720    2.2760    1.0010 hc        1 MOL      0.097866
    140 H65        -7.1260    1.6150    0.6640 hc        1 MOL      0.097866
    141 H66        -6.0550    0.7940    1.8600 hc        1 MOL      0.097866
    142 N13        -6.4510    0.8450   -2.2320 n         1 MOL     -0.424887
    143 C46        -7.7950    0.2650   -1.8710 c3        1 MOL      0.108175
    144 C47        -9.0540    0.8890   -2.6680 c         1 MOL      0.475940
    145 O19        -8.9070    1.4450   -3.7180 o         1 MOL     -0.509257
    146 C48        -7.7760   -1.2690   -1.9890 c3        1 MOL     -0.224137
    147 H67        -6.3680    1.2370   -3.1640 hn        1 MOL      0.314732
    148 H68        -7.9690    0.4350   -0.8160 h1        1 MOL      0.013348
    149 H69        -7.6900   -1.5810   -3.0280 hc        1 MOL      0.068862
    150 H70        -6.8880   -1.7020   -1.5180 hc        1 MOL      0.068862
    151 H71        -8.7290   -1.6480   -1.6140 hc        1 MOL      0.068862
    152 N14       -10.2690    0.8550   -2.0730 n         1 MOL     -0.328633
    153 C49       -10.7580    0.5990   -0.6380 c3        1 MOL     -0.447273
    154 C50       -10.1810    1.6110    0.3720 c         1 MOL      0.589512
    155 O20        -9.8210    1.3870    1.4990 o         1 MOL     -0.542462
    156 C51       -12.3380    0.5210   -0.6940 c3        1 MOL      0.368028
    157 C52       -12.7930   -0.3590    0.4760 c3        1 MOL     -0.285940
    158 C53       -14.2980   -0.5640    0.7080 c         1 MOL      0.645934
    159 O21       -15.0310    0.3760    1.1670 o         1 MOL     -0.634524
    160 O22       -14.8970   -1.6400    0.2710 o         1 MOL     -0.634524
    161 H72       -10.9980    1.1140   -2.7240 hn        1 MOL      0.254394
    162 H73       -10.3870   -0.3660   -0.2930 h1        1 MOL      0.193462
    163 H74       -12.7650    0.0820   -1.5940 hc        1 MOL     -0.032217
    164 H75       -12.7620    1.5270   -0.6580 hc        1 MOL     -0.032217
    165 H76       -12.3360    0.2080    1.2870 hc        1 MOL      0.045160
    166 H77       -12.2950   -1.3370    0.4940 hc        1 MOL      0.045160
    167 N15        -9.8840    2.7680   -0.1320 n         1 MOL     -0.224245
    168 C54        -9.1970    3.8350    0.6130 c3        1 MOL     -0.190823
    169 H78        -8.2560    4.0750    0.1170 h1        1 MOL      0.095807
    170 H79        -9.8280    4.7230    0.6430 h1        1 MOL      0.095807
    171 H80        -8.9950    3.4970    1.6290 h1        1 MOL      0.095807
    172 H81       -10.2040    2.9320   -1.0780 hn        1 MOL      0.226836
    173 Ca1         2.9930    0.3440   -0.8760 Ca        1 MOL      1.682161
    174 O23         3.5860    1.6170   -2.9730 oh        1 MOL     -0.839482
    175 H82         3.3540    1.3930   -3.8720 ho        1 MOL      0.410979
    176 H83         3.7740    2.5590   -3.0020 ho        1 MOL      0.410979
    177 O24         0.9950    1.6450   -2.1590 oh        1 MOL     -0.839482
    178 H84         0.1490    1.3950   -2.5130 ho        1 MOL      0.410979
    179 H85         1.2110    2.4730   -2.5930 ho        1 MOL      0.410979
    180 O25         1.4580   -1.4700   -2.1260 oh        1 MOL     -0.839482
    181 H86         1.9180   -1.5510   -2.9650 ho        1 MOL      0.410979
    182 H87         0.5730   -1.7930   -2.3110 ho        1 MOL      0.410979
@<TRIPOS>BOND
     1    1    2 1   
     2    1    4 1   
     3    1    5 1   
     4    1    6 1   
     5    2    3 2   
     6    2    7 1   
     7    7    8 1   
     8    7   15 1   
     9    8    9 1   
    10    8   11 1   
    11    8   16 1   
    12    9   10 2   
    13    9   19 1   
    14   11   12 1   
    15   11   17 1   
    16   11   18 1   
    17   12   13 1   
    18   12   14 1   
    19   19   20 1   
    20   19   28 1   
    21   20   21 1   
    22   20   23 1   
    23   20   29 1   
    24   21   22 2   
    25   21   41 1   
    26   23   24 1   
    27   23   30 1   
    28   23   31 1   
    29   24   25 1   
    30   24   32 1   
    31   24   33 1   
    32   25   26 1   
    33   25   34 1   
    34   25   35 1   
    35   26   27 1   
    36   26   36 1   
    37   26   37 1   
    38   27   38 1   
    39   27   39 1   
    40   27   40 1   
    41   41   42 1   
    42   41   49 1   
    43   42   43 1   
    44   42   45 1   
    45   42   50 1   
    46   43   44 2   
    47   43   53 1   
    48   45   46 1   
    49   45   51 1   
    50   45   52 1   
    51   46   47 1   
    52   46   48 1   
    53   53   54 1   
    54   53   57 1   
    55   54   55 1   
    56   54   58 1   
    57   54   59 1   
    58   55   56 2   
    59   55   60 1   
    60   60   61 1   
    61   60   68 1   
    62   61   62 1   
    63   61   64 1   
    64   61   69 1   
    65   62   63 2   
    66   62   74 1   
    67   64   65 1   
    68   64   70 1   
    69   64   71 1   
    70   65   66 1   
    71   65   67 2   
    72   66   72 1   
    73   66   73 1   
    74   74   75 1   
    75   74   78 1   
    76   75   76 1   
    77   75   79 1   
    78   75   80 1   
    79   76   77 2   
    80   76   81 1   
    81   81   82 1   
    82   81   93 1   
    83   82   83 1   
    84   82   85 1   
    85   82   94 1   
    86   83   84 2   
    87   83  102 1   
    88   85   86 1   
    89   85   95 1   
    90   85   96 1   
    91   86   87 ar  
    92   86   88 ar  
    93   87   89 ar  
    94   87   97 1   
    95   88   90 ar  
    96   88   98 1   
    97   89   91 ar  
    98   89   99 1   
    99   90   91 ar  
   100   90  100 1   
   101   91   92 1   
   102   92  101 1   
   103  102  103 1   
   104  102  110 1   
   105  103  104 1   
   106  103  106 1   
   107  103  111 1   
   108  104  105 2   
   109  104  121 1   
   110  106  107 1   
   111  106  108 1   
   112  106  112 1   
   113  107  109 1   
   114  107  113 1   
   115  107  114 1   
   116  108  115 1   
   117  108  116 1   
   118  108  117 1   
   119  109  118 1   
   120  109  119 1   
   121  109  120 1   
   122  121  122 1   
   123  121  127 1   
   124  122  123 1   
   125  122  125 1   
   126  122  128 1   
   127  123  124 2   
   128  123  132 1   
   129  125  126 1   
   130  125  129 1   
   131  125  130 1   
   132  126  131 1   
   133  132  133 1   
   134  132  137 1   
   135  133  134 1   
   136  133  136 1   
   137  133  138 1   
   138  134  135 2   
   139  134  142 1   
   140  136  139 1   
   141  136  140 1   
   142  136  141 1   
   143  142  143 1   
   144  142  147 1   
   145  143  144 1   
   146  143  146 1   
   147  143  148 1   
   148  144  145 2   
   149  144  152 1   
   150  146  149 1   
   151  146  150 1   
   152  146  151 1   
   153  152  153 1   
   154  152  161 1   
   155  153  154 1   
   156  153  156 1   
   157  153  162 1   
   158  154  155 2   
   159  154  167 1   
   160  156  157 1   
   161  156  163 1   
   162  156  164 1   
   163  157  158 1   
   164  157  165 1   
   165  157  166 1   
   166  158  159 1   
   167  158  160 1   
   168  167  168 1   
   169  167  172 1   
   170  168  169 1   
   171  168  170 1   
   172  168  171 1   
   173  174  175 1   
   174  174  176 1   
   175  177  178 1   
   176  177  179 1   
   177  180  181 1   
   178  180  182 1   
@<TRIPOS>SUBSTRUCTURE
     1 MOL         1 TEMP              0 ****  ****    0 ROOT
