@<TRIPOS>MOLECULE
MOL
  186   183     1     0     0
SMALL
resp


@<TRIPOS>ATOM
      1 C1          3.8780    4.3470   -3.1400 c3        1 MOL     -0.390976
      2 C2          4.8100    3.4740   -2.2970 c         1 MOL      0.745147
      3 O1          4.4000    3.1580   -1.1900 o         1 MOL     -0.482423
      4 H1          3.0580    3.7390   -3.5200 hc        1 MOL      0.103352
      5 H2          3.4770    5.1510   -2.5240 hc        1 MOL      0.103352
      6 H3          4.4330    4.7700   -3.9770 hc        1 MOL      0.103352
      7 N1          6.0520    3.0850   -2.6720 n         1 MOL     -0.877826
      8 C3          6.8730    1.9870   -2.0830 c3        1 MOL      0.396349
      9 C4          6.0250    0.7270   -1.7440 c         1 MOL      0.275697
     10 O2          5.7740    0.4010   -0.6110 o         1 MOL     -0.351135
     11 C5          7.7240    2.5650   -0.9620 c3        1 MOL      0.078107
     12 C6          7.0280    3.5690    0.0600 c         1 MOL      0.634951
     13 O3          6.4910    3.1670    1.1060 o         1 MOL     -0.700315
     14 O4          7.1430    4.7930   -0.2180 o         1 MOL     -0.700315
     15 H4          6.3610    3.6160   -3.4790 hn        1 MOL      0.369454
     16 H5          7.6030    1.5890   -2.7800 h1        1 MOL     -0.014751
     17 H6          8.5580    3.0210   -1.5020 hc        1 MOL     -0.060026
     18 H7          8.0580    1.7170   -0.3680 hc        1 MOL     -0.060026
     19 N2          5.5500    0.0480   -2.7400 n         1 MOL     -0.272077
     20 C7          4.9440   -1.3490   -2.7320 c3        1 MOL      0.024546
     21 C8          5.7700   -2.4320   -2.0440 c         1 MOL      0.466029
     22 O5          6.5830   -3.1190   -2.7060 o         1 MOL     -0.576272
     23 C9          3.3880   -1.2870   -2.3340 c3        1 MOL      0.156647
     24 C10         2.5330   -2.4860   -2.8740 c3        1 MOL     -0.184710
     25 C11         2.7690   -0.0080   -2.8750 c3        1 MOL     -0.372173
     26 C12         2.7030   -2.9440   -4.3420 c3        1 MOL     -0.033359
     27 H8          5.8290    0.2880   -3.6850 hn        1 MOL      0.224245
     28 H9          4.9560   -1.4930   -3.8190 h1        1 MOL      0.042344
     29 H10         3.2730   -1.2400   -1.2510 hc        1 MOL     -0.042042
     30 H11         1.4900   -2.2350   -2.6950 hc        1 MOL      0.082596
     31 H12         2.7100   -3.4000   -2.3120 hc        1 MOL      0.082596
     32 H13         1.6990   -0.1750   -3.0090 hc        1 MOL      0.078931
     33 H14         2.9220    0.8420   -2.2250 hc        1 MOL      0.078931
     34 H15         3.2040    0.3020   -3.8180 hc        1 MOL      0.078931
     35 H16         2.1170   -3.7670   -4.7370 hc        1 MOL      0.004242
     36 H17         2.5150   -2.1430   -5.0490 hc        1 MOL      0.004242
     37 H18         3.7390   -3.2790   -4.4170 hc        1 MOL      0.004242
     38 N3          5.7900   -2.4610   -0.7420 n         1 MOL     -0.406422
     39 C13         6.7330   -3.2980    0.1020 c3        1 MOL      0.536406
     40 C14         6.1880   -4.7050    0.3440 c         1 MOL      0.452604
     41 O6          6.9500   -5.5730   -0.0310 o         1 MOL     -0.565281
     42 C15         7.2650   -2.5730    1.3920 c3        1 MOL     -0.491429
     43 C16         8.3520   -1.5160    1.1060 c         1 MOL      0.681059
     44 O7          8.9990   -1.5080    0.0240 o         1 MOL     -0.676349
     45 O8          8.5980   -0.6350    1.9840 o         1 MOL     -0.676349
     46 H19         5.3270   -1.6810   -0.3100 hn        1 MOL      0.229975
     47 H20         7.6500   -3.5270   -0.4430 h1        1 MOL     -0.028305
     48 H21         7.7460   -3.3270    2.0100 hc        1 MOL      0.137678
     49 H22         6.3840   -2.1430    1.8760 hc        1 MOL      0.137678
     50 N4          5.0050   -5.0680    0.9080 n         1 MOL     -0.582306
     51 C17         3.9070   -4.2190    1.4910 c3        1 MOL      0.121212
     52 C18         4.3090   -3.6570    2.8460 c         1 MOL      0.507016
     53 O9          5.0780   -4.1860    3.5840 o         1 MOL     -0.529516
     54 H23         4.9680   -6.0870    0.9610 hn        1 MOL      0.314825
     55 H24         3.0020   -4.8030    1.6370 h1        1 MOL      0.044029
     56 H25         3.6190   -3.3730    0.8740 h1        1 MOL      0.044029
     57 N5          3.8450   -2.3870    3.1730 n         1 MOL     -0.533123
     58 C19         2.5440   -1.7790    2.6750 c3        1 MOL      0.178851
     59 C20         2.5600   -1.0950    1.2810 c         1 MOL     -0.130903
     60 O10         3.6630   -0.6340    1.0440 o         1 MOL     -0.375739
     61 C21         2.0580   -0.8280    3.7010 c3        1 MOL     -0.331951
     62 C22         3.0620    0.2770    4.0210 c         1 MOL      0.703715
     63 O11         3.8490    0.2840    4.9530 o         1 MOL     -0.666172
     64 O12         3.1200    1.2320    3.1990 o         1 MOL     -0.666172
     65 H26         4.3420   -1.9130    3.9170 hn        1 MOL      0.374517
     66 H27         1.8010   -2.5780    2.7090 h1        1 MOL      0.026690
     67 H28         1.8850   -1.3360    4.6480 hc        1 MOL      0.078565
     68 H29         1.0700   -0.4410    3.4420 hc        1 MOL      0.078565
     69 N6          1.4680   -1.0010    0.5290 n         1 MOL      0.170948
     70 C23         0.1060   -1.4200    0.8240 c3        1 MOL     -0.070248
     71 C24        -0.3130   -2.7200    0.1620 c         1 MOL      0.547164
     72 O13         0.4540   -3.2630   -0.6880 o         1 MOL     -0.525206
     73 H30         1.5670   -0.3920   -0.2660 hn        1 MOL      0.107354
     74 H31        -0.6070   -0.6340    0.5820 h1        1 MOL      0.066669
     75 H32        -0.0730   -1.5240    1.8950 h1        1 MOL      0.066669
     76 N7         -1.5070   -3.2440    0.6060 n         1 MOL     -0.509700
     77 C25        -1.9380   -4.5340    0.1740 c3        1 MOL      0.056390
     78 C26        -2.8350   -4.4990   -1.1050 c         1 MOL      0.549354
     79 O14        -2.9790   -5.5640   -1.7650 o         1 MOL     -0.560777
     80 C27        -2.6200   -5.3390    1.3790 c3        1 MOL      0.028537
     81 C28        -3.7770   -4.8660    2.3410 c3        1 MOL     -0.053717
     82 C29        -4.9920   -4.4040    1.5780 c         1 MOL      0.460051
     83 N8         -6.0160   -5.1790    1.3590 n         1 MOL     -0.707584
     84 O15        -4.9720   -3.3380    0.9970 o         1 MOL     -0.571289
     85 H33        -1.9810   -2.8490    1.4100 hn        1 MOL      0.309609
     86 H34        -1.1050   -5.1370   -0.1690 h1        1 MOL      0.082856
     87 H35        -1.8180   -5.6150    2.0590 hc        1 MOL      0.007865
     88 H36        -2.9380   -6.2770    0.9270 hc        1 MOL      0.007865
     89 H37        -3.3950   -4.0330    2.9450 hc        1 MOL      0.039761
     90 H38        -4.0110   -5.6690    3.0400 hc        1 MOL      0.039761
     91 H39        -6.1700   -6.0800    1.7740 hn        1 MOL      0.344914
     92 H40        -6.7740   -4.8220    0.7820 hn        1 MOL      0.344914
     93 N9         -3.2300   -3.2670   -1.5030 n         1 MOL     -0.285146
     94 C30        -3.8570   -2.8860   -2.8050 c3        1 MOL     -0.129620
     95 C31        -5.3450   -2.3920   -2.8770 c         1 MOL      0.435136
     96 O16        -5.9990   -2.5200   -3.9430 o         1 MOL     -0.529159
     97 C32        -2.9200   -1.9760   -3.5910 c3        1 MOL      0.373225
     98 C33        -1.5550   -2.5570   -4.0290 c3        1 MOL     -0.246176
     99 C34        -2.9020   -0.5710   -3.0080 c3        1 MOL     -0.246176
    100 H41        -3.1720   -2.4910   -0.8620 hn        1 MOL      0.168547
    101 H42        -3.9670   -3.7810   -3.4260 h1        1 MOL      0.092658
    102 H43        -3.4820   -1.8470   -4.5130 hc        1 MOL     -0.054107
    103 H44        -1.5480   -2.9530   -5.0410 hc        1 MOL      0.053954
    104 H45        -0.8540   -1.7450   -3.8230 hc        1 MOL      0.053954
    105 H46        -1.1650   -3.3130   -3.3470 hc        1 MOL      0.053954
    106 H47        -2.4460   -0.5850   -2.0130 hc        1 MOL      0.053954
    107 H48        -2.3000    0.0260   -3.6900 hc        1 MOL      0.053954
    108 H49        -3.8900   -0.1200   -3.0040 hc        1 MOL      0.053954
    109 N10        -5.9270   -1.8520   -1.7890 n         1 MOL     -0.282980
    110 C35        -7.2510   -1.3080   -1.7310 c3        1 MOL     -0.109265
    111 C36        -7.3500    0.1600   -1.1380 c         1 MOL      0.565937
    112 O17        -8.3720    0.8230   -1.4080 o         1 MOL     -0.549425
    113 C37        -8.1370   -2.2790   -0.8180 c3        1 MOL     -0.256457
    114 C38        -8.1800   -3.6970   -1.2040 c         1 MOL      0.679350
    115 N11        -8.1830   -3.9800   -2.4880 n         1 MOL     -0.718949
    116 O18        -8.4170   -4.5770   -0.3800 o         1 MOL     -0.595275
    117 H50        -5.3960   -1.7100   -0.9490 hn        1 MOL      0.380589
    118 H51        -7.5830   -1.1670   -2.7550 h1        1 MOL      0.131973
    119 H52        -9.1890   -2.0540   -0.9550 hc        1 MOL      0.085612
    120 H53        -7.8660   -2.2070    0.2340 hc        1 MOL      0.085612
    121 H54        -7.9750   -3.2660   -3.1640 hn        1 MOL      0.350599
    122 H55        -8.1950   -4.9860   -2.6320 hn        1 MOL      0.350599
    123 N12        -6.2640    0.7170   -0.5690 n         1 MOL     -0.425456
    124 C39        -6.2830    2.0090    0.1720 c3        1 MOL      0.229707
    125 C40        -4.8920    2.6290    0.3970 c         1 MOL      0.339436
    126 O19        -3.8980    1.8890    0.4770 o         1 MOL     -0.416493
    127 C41        -7.0540    1.7830    1.4400 c3        1 MOL     -0.441527
    128 C42        -6.3970    0.7900    2.3520 ca        1 MOL      0.340473
    129 C43        -6.9290   -0.5070    2.5000 ca        1 MOL     -0.331857
    130 C44        -5.3670    1.2070    3.2080 ca        1 MOL     -0.331857
    131 C45        -6.2900   -1.4820    3.3340 ca        1 MOL     -0.179281
    132 C46        -4.7860    0.2650    4.1160 ca        1 MOL     -0.179281
    133 C47        -5.2020   -1.0980    4.1150 ca        1 MOL      0.254453
    134 O20        -4.6000   -1.9370    4.9820 oh        1 MOL     -0.437213
    135 H56        -5.5360    0.0350   -0.4050 hn        1 MOL      0.164699
    136 H57        -6.7440    2.7500   -0.4850 h1        1 MOL      0.051973
    137 H58        -8.0930    1.4960    1.2980 hc        1 MOL      0.135940
    138 H59        -7.0950    2.7460    1.9570 hc        1 MOL      0.135940
    139 H60        -7.7040   -0.8640    1.8330 ha        1 MOL      0.177516
    140 H61        -4.9630    2.2070    3.2340 ha        1 MOL      0.177516
    141 H62        -6.7180   -2.4770    3.3120 ha        1 MOL      0.154176
    142 H63        -3.9750    0.7110    4.6660 ha        1 MOL      0.154176
    143 H64        -5.1820   -2.6920    5.0810 ho        1 MOL      0.313104
    144 N13        -4.8060    3.9520    0.4300 n         1 MOL     -0.484683
    145 C48        -3.6940    4.8050    0.8150 c3        1 MOL     -0.003879
    146 C49        -2.5220    4.8540   -0.1840 c         1 MOL      0.409981
    147 O21        -2.0240    5.9740   -0.3120 o         1 MOL     -0.511013
    148 C50        -3.2810    4.5170    2.2790 c3        1 MOL      0.333501
    149 C51        -2.8090    5.6510    3.1190 c3        1 MOL     -0.563638
    150 C52        -3.8280    6.7970    3.4590 c         1 MOL      0.816128
    151 O22        -3.6600    7.8320    2.7400 o         1 MOL     -0.752641
    152 O23        -4.8090    6.6890    4.2000 o         1 MOL     -0.752641
    153 H65        -5.6690    4.4680    0.3240 hn        1 MOL      0.311925
    154 H66        -4.1400    5.8040    0.7590 h1        1 MOL      0.114378
    155 H67        -2.5680    3.7060    2.1560 hc        1 MOL     -0.025307
    156 H68        -4.1990    4.1950    2.7670 hc        1 MOL     -0.025307
    157 H69        -1.9170    5.9710    2.5700 hc        1 MOL      0.101585
    158 H70        -2.3860    5.3010    4.0590 hc        1 MOL      0.101585
    159 N14        -2.1560    3.8600   -0.9730 n         1 MOL     -0.072558
    160 C53        -1.0770    4.0670   -2.0010 c3        1 MOL     -0.337759
    161 C54        -1.6490    4.7850   -3.2680 c         1 MOL      0.548956
    162 O24        -0.8410    5.3580   -4.0830 o         1 MOL     -0.543579
    163 C55        -0.5550    2.6690   -2.3980 c3        1 MOL      0.096081
    164 C56        -0.0530    1.8440   -1.1740 c3        1 MOL      0.801160
    165 C57         1.0250    2.4550   -0.2460 c         1 MOL      0.293804
    166 O25         0.7230    3.5610    0.3080 o         1 MOL     -0.565591
    167 O26         2.0640    1.8190   -0.0600 o         1 MOL     -0.565591
    168 H71        -2.4880    2.9300   -0.7590 hn        1 MOL      0.127319
    169 H72        -0.3290    4.7510   -1.5890 h1        1 MOL      0.217522
    170 H73         0.3560    2.7220   -3.0110 hc        1 MOL     -0.058906
    171 H74        -1.2820    2.1280   -2.9980 hc        1 MOL     -0.058906
    172 H75         0.3170    0.9100   -1.5900 hc        1 MOL     -0.262074
    173 H76        -0.9600    1.6650   -0.5990 hc        1 MOL     -0.262074
    174 N15        -3.0100    4.7950   -3.4570 n         1 MOL     -0.297259
    175 C58        -3.7670    5.6010   -4.4420 c3        1 MOL     -0.202247
    176 H77        -4.6260    5.0290   -4.7940 h1        1 MOL      0.093849
    177 H78        -4.1140    6.5210   -3.9700 h1        1 MOL      0.093849
    178 H79        -3.1220    5.8440   -5.2860 h1        1 MOL      0.093849
    179 H80        -3.5990    4.3670   -2.7590 hn        1 MOL      0.207800
    180 Ca1         4.3330    1.8450    1.1400 Ca        1 MOL      1.596734
    181 O27         3.0330    4.2120    1.4660 oh        1 MOL     -0.869545
    182 H81         2.8370    4.6650    2.2870 ho        1 MOL      0.394587
    183 H82         2.1810    3.9920    1.1040 ho        1 MOL      0.394587
    184 O28         6.2490    0.5650    2.6890 oh        1 MOL     -0.869545
    185 H83         6.7280    1.2780    3.1180 ho        1 MOL      0.394587
    186 H84         6.9270   -0.0120    2.3370 ho        1 MOL      0.394587
@<TRIPOS>BOND
     1    1    2 1   
     2    1    4 1   
     3    1    5 1   
     4    1    6 1   
     5    2    3 2   
     6    2    7 1   
     7    7    8 1   
     8    7   15 1   
     9    8    9 1   
    10    8   11 1   
    11    8   16 1   
    12    9   10 2   
    13    9   19 1   
    14   11   12 1   
    15   11   17 1   
    16   11   18 1   
    17   12   13 1   
    18   12   14 1   
    19   19   20 1   
    20   19   27 1   
    21   20   21 1   
    22   20   23 1   
    23   20   28 1   
    24   21   22 2   
    25   21   38 1   
    26   23   24 1   
    27   23   25 1   
    28   23   29 1   
    29   24   26 1   
    30   24   30 1   
    31   24   31 1   
    32   25   32 1   
    33   25   33 1   
    34   25   34 1   
    35   26   35 1   
    36   26   36 1   
    37   26   37 1   
    38   38   39 1   
    39   38   46 1   
    40   39   40 1   
    41   39   42 1   
    42   39   47 1   
    43   40   41 2   
    44   40   50 1   
    45   42   43 1   
    46   42   48 1   
    47   42   49 1   
    48   43   44 1   
    49   43   45 1   
    50   50   51 1   
    51   50   54 1   
    52   51   52 1   
    53   51   55 1   
    54   51   56 1   
    55   52   53 2   
    56   52   57 1   
    57   57   58 1   
    58   57   65 1   
    59   58   59 1   
    60   58   61 1   
    61   58   66 1   
    62   59   60 2   
    63   59   69 1   
    64   61   62 1   
    65   61   67 1   
    66   61   68 1   
    67   62   63 1   
    68   62   64 1   
    69   69   70 1   
    70   69   73 1   
    71   70   71 1   
    72   70   74 1   
    73   70   75 1   
    74   71   72 2   
    75   71   76 1   
    76   76   77 1   
    77   76   85 1   
    78   77   78 1   
    79   77   80 1   
    80   77   86 1   
    81   78   79 2   
    82   78   93 1   
    83   80   81 1   
    84   80   87 1   
    85   80   88 1   
    86   81   82 1   
    87   81   89 1   
    88   81   90 1   
    89   82   83 1   
    90   82   84 2   
    91   83   91 1   
    92   83   92 1   
    93   93   94 1   
    94   93  100 1   
    95   94   95 1   
    96   94   97 1   
    97   94  101 1   
    98   95   96 2   
    99   95  109 1   
   100   97   98 1   
   101   97   99 1   
   102   97  102 1   
   103   98  103 1   
   104   98  104 1   
   105   98  105 1   
   106   99  106 1   
   107   99  107 1   
   108   99  108 1   
   109  109  110 1   
   110  109  117 1   
   111  110  111 1   
   112  110  113 1   
   113  110  118 1   
   114  111  112 2   
   115  111  123 1   
   116  113  114 1   
   117  113  119 1   
   118  113  120 1   
   119  114  115 1   
   120  114  116 2   
   121  115  121 1   
   122  115  122 1   
   123  123  124 1   
   124  123  135 1   
   125  124  125 1   
   126  124  127 1   
   127  124  136 1   
   128  125  126 2   
   129  125  144 1   
   130  127  128 1   
   131  127  137 1   
   132  127  138 1   
   133  128  129 ar  
   134  128  130 ar  
   135  129  131 ar  
   136  129  139 1   
   137  130  132 ar  
   138  130  140 1   
   139  131  133 ar  
   140  131  141 1   
   141  132  133 ar  
   142  132  142 1   
   143  133  134 1   
   144  134  143 1   
   145  144  145 1   
   146  144  153 1   
   147  145  146 1   
   148  145  148 1   
   149  145  154 1   
   150  146  147 2   
   151  146  159 1   
   152  148  149 1   
   153  148  155 1   
   154  148  156 1   
   155  149  150 1   
   156  149  157 1   
   157  149  158 1   
   158  150  151 1   
   159  150  152 1   
   160  159  160 1   
   161  159  168 1   
   162  160  161 1   
   163  160  163 1   
   164  160  169 1   
   165  161  162 2   
   166  161  174 1   
   167  163  164 1   
   168  163  170 1   
   169  163  171 1   
   170  164  165 1   
   171  164  172 1   
   172  164  173 1   
   173  165  166 1   
   174  165  167 1   
   175  174  175 1   
   176  174  179 1   
   177  175  176 1   
   178  175  177 1   
   179  175  178 1   
   180  181  182 1   
   181  181  183 1   
   182  184  185 1   
   183  184  186 1   
@<TRIPOS>SUBSTRUCTURE
     1 MOL         1 TEMP              0 ****  ****    0 ROOT
