@<TRIPOS>MOLECULE
MOL
  188   182     1     0     0
SMALL
resp


@<TRIPOS>ATOM
      1 C1         -5.0240    1.2290   -4.9170 c3        1 MOL     -0.453631
      2 C2         -5.1470    1.0440   -3.4090 c         1 MOL      0.683006
      3 O1         -4.2820    0.3520   -2.8320 o         1 MOL     -0.592519
      4 H1         -5.1990    2.2750   -5.1690 hc        1 MOL      0.115985
      5 H2         -4.0240    0.9400   -5.2390 hc        1 MOL      0.115985
      6 H3         -5.7630    0.6050   -5.4200 hc        1 MOL      0.115985
      7 N1         -6.2500    1.5120   -2.8110 n         1 MOL     -0.568929
      8 C3         -6.6210    1.3750   -1.3870 c3        1 MOL      0.040491
      9 C4         -6.6960   -0.0370   -0.8060 c         1 MOL      0.431348
     10 O2         -6.8610   -0.1760    0.4140 o         1 MOL     -0.466291
     11 C5         -5.6990    2.3070   -0.5560 c3        1 MOL     -0.062183
     12 C6         -6.2100    2.7450    0.8470 c         1 MOL      0.624298
     13 O3         -5.4420    3.2950    1.6400 o         1 MOL     -0.616502
     14 O4         -7.4330    2.7800    1.0480 o         1 MOL     -0.616502
     15 H4         -6.9150    1.8900   -3.4800 hn        1 MOL      0.308158
     16 H5         -7.6270    1.8010   -1.3600 h1        1 MOL      0.069534
     17 H6         -5.4470    3.2310   -1.0790 hc        1 MOL      0.024340
     18 H7         -4.7870    1.7300   -0.4480 hc        1 MOL      0.024340
     19 N2         -6.6630   -1.0370   -1.6650 n         1 MOL     -0.371188
     20 C7         -6.7710   -2.5040   -1.4210 c3        1 MOL     -0.179170
     21 C8         -5.5480   -3.1140   -0.7340 c         1 MOL      0.713501
     22 O5         -5.4490   -4.3030   -0.5040 o         1 MOL     -0.590557
     23 C9         -7.0930   -3.2440   -2.7160 c3        1 MOL     -0.099961
     24 C10        -8.5590   -2.8110   -3.1270 c3        1 MOL      0.269437
     25 C11        -8.9770   -3.6500   -4.3400 c3        1 MOL     -0.241830
     26 C12       -10.4580   -3.4850   -4.8030 c3        1 MOL      0.147576
     27 N3        -10.8260   -4.3090   -5.9620 n4        1 MOL     -0.263675
     28 H8         -6.6810   -0.7410   -2.6250 hn        1 MOL      0.273889
     29 H9         -7.4780   -2.7020   -0.6230 h1        1 MOL      0.142257
     30 H10        -7.1240   -4.3370   -2.6870 hc        1 MOL      0.060704
     31 H11        -6.4640   -3.0400   -3.5870 hc        1 MOL      0.060704
     32 H12        -8.4730   -1.7760   -3.4690 hc        1 MOL     -0.043900
     33 H13        -9.3340   -2.8550   -2.3740 hc        1 MOL     -0.043900
     34 H14        -8.9800   -4.6960   -4.0160 hc        1 MOL      0.073020
     35 H15        -8.3200   -3.4000   -5.1720 hc        1 MOL      0.073020
     36 H16       -10.6350   -2.4440   -5.0760 hx        1 MOL      0.051033
     37 H17       -11.0960   -3.6930   -3.9520 hx        1 MOL      0.051033
     38 H18       -11.7050   -4.0310   -6.3910 hn        1 MOL      0.263917
     39 H19       -10.1900   -4.2590   -6.7460 hn        1 MOL      0.263917
     40 H20       -11.0360   -5.2800   -5.8030 hn        1 MOL      0.263917
     41 N4         -4.5410   -2.3270   -0.3550 n         1 MOL     -0.583258
     42 C13        -3.3170   -2.8890    0.1880 c3        1 MOL      0.083023
     43 C14        -3.4000   -3.1400    1.6940 c         1 MOL      0.576986
     44 O6         -4.2260   -2.5810    2.3750 o         1 MOL     -0.516248
     45 C15        -2.1320   -2.0230   -0.2480 c3        1 MOL     -0.099585
     46 C16        -0.9110   -2.3550    0.5240 c         1 MOL      0.885985
     47 O7         -0.7040   -1.9670    1.6780 o         1 MOL     -0.864417
     48 O8          0.1450   -2.7860   -0.0080 o         1 MOL     -0.864417
     49 H21        -4.7700   -1.3400   -0.3670 hn        1 MOL      0.400736
     50 H22        -3.1170   -3.8600   -0.2690 h1        1 MOL      0.042158
     51 H23        -2.3020   -0.9760   -0.0140 hc        1 MOL      0.049811
     52 H24        -1.9200   -2.1350   -1.3080 hc        1 MOL      0.049811
     53 N5         -2.6000   -4.1070    2.2180 n         1 MOL     -0.318581
     54 C17        -2.5910   -4.7490    3.5410 c3        1 MOL     -0.353665
     55 C18        -2.1560   -3.7850    4.7140 c         1 MOL      0.558077
     56 O9         -2.1540   -4.1340    5.8800 o         1 MOL     -0.571470
     57 H25        -1.9070   -4.4560    1.5750 hn        1 MOL      0.231610
     58 H26        -1.8630   -5.5460    3.4530 h1        1 MOL      0.167415
     59 H27        -3.5820   -5.0800    3.8390 h1        1 MOL      0.167415
     60 N6         -1.6990   -2.5440    4.4560 n         1 MOL     -0.155522
     61 C19        -1.6380   -1.4240    5.3250 c3        1 MOL     -0.205433
     62 C20        -2.1430   -0.0410    4.7410 c         1 MOL      0.431838
     63 O10        -2.0590    1.0150    5.3990 o         1 MOL     -0.496562
     64 C21        -0.2350   -1.2540    5.8750 c3        1 MOL     -0.035776
     65 C22         0.8150   -0.6000    4.9170 c         1 MOL      0.460390
     66 N7          1.3540    0.5780    5.1720 n         1 MOL     -0.666043
     67 O11         1.1430   -1.2940    3.9200 o         1 MOL     -0.508100
     68 H28        -1.5050   -2.3650    3.4760 hn        1 MOL      0.193565
     69 H29        -2.2890   -1.6130    6.1790 h1        1 MOL      0.168131
     70 H30         0.2120   -2.1440    6.3230 hc        1 MOL      0.042683
     71 H31        -0.2880   -0.5590    6.7150 hc        1 MOL      0.042683
     72 H32         1.0820    1.1410    5.9680 hn        1 MOL      0.357464
     73 H33         1.9160    0.9830    4.4390 hn        1 MOL      0.357464
     74 N8         -2.5490   -0.0430    3.4510 n         1 MOL     -0.206903
     75 C23        -2.8440    1.1500    2.6780 c3        1 MOL     -0.015639
     76 C24        -1.7310    1.9540    2.1360 c         1 MOL      0.700170
     77 O12        -0.5710    1.8060    2.5190 o         1 MOL     -0.568491
     78 H34        -2.4970   -0.9270    2.9640 hn        1 MOL      0.158945
     79 H35        -3.4530    1.8490    3.2460 h1        1 MOL      0.025343
     80 H36        -3.5060    0.8310    1.8750 h1        1 MOL      0.025343
     81 N9         -2.1480    2.8340    1.1880 n         1 MOL     -0.815205
     82 C25        -1.2060    3.5820    0.2960 c3        1 MOL      0.501818
     83 C26        -0.2850    2.5510   -0.4410 c         1 MOL      0.033944
     84 O13        -0.6180    1.4210   -0.6720 o         1 MOL     -0.368727
     85 C27        -1.8940    4.4880   -0.7320 c3        1 MOL     -0.080885
     86 C28        -2.2960    5.8850   -0.2000 ca        1 MOL     -0.073126
     87 C29        -3.2580    5.9050    0.8220 ca        1 MOL     -0.098956
     88 C30        -1.9000    7.0900   -0.8590 ca        1 MOL     -0.098956
     89 C31        -3.6120    7.1110    1.4340 ca        1 MOL     -0.223558
     90 C32        -2.2940    8.2970   -0.2190 ca        1 MOL     -0.223558
     91 C33        -3.1590    8.3250    0.9020 ca        1 MOL      0.251593
     92 O14        -3.5760    9.4320    1.5100 oh        1 MOL     -0.388037
     93 H37        -3.1430    2.9080    1.0440 hn        1 MOL      0.573200
     94 H38        -0.5240    4.2490    0.8250 h1        1 MOL     -0.013116
     95 H39        -2.8760    4.1230   -1.0440 hc        1 MOL      0.040147
     96 H40        -1.2750    4.5660   -1.6220 hc        1 MOL      0.040147
     97 H41        -3.5740    4.9540    1.2300 ha        1 MOL      0.076299
     98 H42        -1.2340    7.0520   -1.7120 ha        1 MOL      0.076299
     99 H43        -4.0830    7.1030    2.4020 ha        1 MOL      0.136627
    100 H44        -2.0370    9.1690   -0.8040 ha        1 MOL      0.136627
    101 H45        -3.3750   10.2450    1.0360 ho        1 MOL      0.311056
    102 N10         0.9690    3.0040   -0.8710 n         1 MOL     -0.260567
    103 C34         1.9870    2.1950   -1.5500 c3        1 MOL     -0.081952
    104 C35         3.3170    2.3900   -0.7140 c         1 MOL      0.329747
    105 O15         3.9750    1.4140   -0.4320 o         1 MOL     -0.471807
    106 C36         2.2410    2.5260   -3.0460 c3        1 MOL      0.310942
    107 C37         0.9880    2.3570   -3.9080 c3        1 MOL     -0.144001
    108 C38         3.4070    1.7750   -3.6410 c3        1 MOL     -0.335403
    109 C39         1.1080    2.7520   -5.4210 c3        1 MOL     -0.327302
    110 H46         1.3110    3.9260   -0.6480 hn        1 MOL      0.202216
    111 H47         1.7450    1.1330   -1.4500 h1        1 MOL      0.142242
    112 H48         2.3860    3.6050   -3.0720 hc        1 MOL     -0.078263
    113 H49         0.2500    3.0350   -3.4600 hc        1 MOL      0.109010
    114 H50         0.7170    1.3100   -3.8120 hc        1 MOL      0.109010
    115 H51         3.2690    0.6890   -3.6120 hc        1 MOL      0.095458
    116 H52         3.4780    2.0500   -4.6940 hc        1 MOL      0.095458
    117 H53         4.3470    2.1530   -3.2620 hc        1 MOL      0.095458
    118 H54         0.1210    3.0320   -5.7890 hc        1 MOL      0.091143
    119 H55         1.7940    3.5800   -5.5780 hc        1 MOL      0.091143
    120 H56         1.5490    1.8620   -5.8670 hc        1 MOL      0.091143
    121 N11         3.6740    3.6260   -0.2570 n         1 MOL     -0.298925
    122 C40         4.8010    3.8870    0.7100 c3        1 MOL      0.050331
    123 C41         6.1590    3.3350    0.1350 c         1 MOL      0.359719
    124 O16         7.0360    2.9370    0.8660 o         1 MOL     -0.490419
    125 C42         4.8080    5.3800    0.9650 c3        1 MOL      0.299096
    126 O17         3.5160    5.8950    1.3190 oh        1 MOL     -0.594229
    127 H57         3.1250    4.4460   -0.4990 hn        1 MOL      0.241525
    128 H58         4.5650    3.4230    1.6630 h1        1 MOL      0.066049
    129 H59         5.3050    5.8640    0.1140 h1        1 MOL     -0.013574
    130 H60         5.5450    5.5020    1.7660 h1        1 MOL     -0.013574
    131 H61         3.5270    6.8610    1.2960 ho        1 MOL      0.390239
    132 N12         6.2390    3.4190   -1.1810 n         1 MOL     -0.214940
    133 C43         7.3570    2.8580   -1.9960 c3        1 MOL      0.196295
    134 C44         7.7690    1.3910   -1.8140 c         1 MOL      0.392844
    135 O18         8.8590    0.9960   -2.1270 o         1 MOL     -0.523808
    136 C45         8.4900    3.9000   -2.0260 c3        1 MOL     -0.374718
    137 H62         5.3770    3.6620   -1.6280 hn        1 MOL      0.150351
    138 H63         6.8930    2.8910   -2.9830 h1        1 MOL      0.049049
    139 H64         9.0230    4.0590   -1.0890 hc        1 MOL      0.106529
    140 H65         9.2400    3.6430   -2.7770 hc        1 MOL      0.106529
    141 H66         8.0240    4.8490   -2.2850 hc        1 MOL      0.106529
    142 N13         6.8920    0.5460   -1.3170 n         1 MOL     -0.146348
    143 C46         7.2580   -0.7450   -0.7420 c3        1 MOL      0.329642
    144 C47         6.5150   -1.8800   -1.3880 c         1 MOL      0.224983
    145 O19         5.4770   -1.6550   -2.0080 o         1 MOL     -0.467626
    146 C48         6.9630   -0.6720    0.8050 c3        1 MOL     -0.119395
    147 H67         5.9500    0.8630   -1.1670 hn        1 MOL     -0.018162
    148 H68         8.3240   -0.9460   -0.7910 h1        1 MOL      0.007927
    149 H69         7.7640   -0.1760    1.3470 hc        1 MOL      0.049163
    150 H70         6.0010   -0.1890    1.0020 hc        1 MOL      0.049163
    151 H71         6.9360   -1.6770    1.2140 hc        1 MOL      0.049163
    152 N14         6.9040   -3.1310   -1.2120 n         1 MOL     -0.463062
    153 C49         6.5000   -4.4090   -1.9410 c3        1 MOL     -0.176253
    154 C50         6.5760   -4.3090   -3.4980 c         1 MOL      0.488872
    155 O20         6.4680   -5.2640   -4.1770 o         1 MOL     -0.516283
    156 C51         5.1010   -4.8870   -1.4530 c3        1 MOL      0.141932
    157 C52         5.1430   -5.2720    0.0320 c3        1 MOL     -0.175831
    158 C53         3.7070   -5.5270    0.4540 c         1 MOL      0.635722
    159 O21         2.8870   -4.5830    0.4010 o         1 MOL     -0.677768
    160 O22         3.4420   -6.5490    1.1050 o         1 MOL     -0.677768
    161 H72         7.6540   -3.2520   -0.5520 hn        1 MOL      0.329490
    162 H73         7.2130   -5.1980   -1.7160 h1        1 MOL      0.125191
    163 H74         4.7640   -5.7140   -2.0790 hc        1 MOL      0.032537
    164 H75         4.3510   -4.1240   -1.6800 hc        1 MOL      0.032537
    165 H76         5.6290   -4.4790    0.5980 hc        1 MOL      0.030666
    166 H77         5.8590   -6.0940    0.1000 hc        1 MOL      0.030666
    167 N15         6.7980   -3.1120   -4.0570 n         1 MOL     -0.210701
    168 C54         6.7450   -2.7900   -5.4800 c3        1 MOL     -0.125348
    169 H78         6.4820   -1.7390   -5.6040 h1        1 MOL      0.074353
    170 H79         7.7190   -2.9750   -5.9310 h1        1 MOL      0.074353
    171 H80         5.9930   -3.4110   -5.9660 h1        1 MOL      0.074353
    172 H81         6.9360   -2.3620   -3.3930 hn        1 MOL      0.208809
    173 Ca1         2.0460   -2.4000    1.7060 Ca        1 MOL      1.772751
    174 O23         3.6530   -1.3660   -0.0280 oh        1 MOL     -0.867582
    175 H82         3.6450   -0.4080   -0.0210 ho        1 MOL      0.430438
    176 H83         4.0310   -1.6010   -0.8660 ho        1 MOL      0.430438
    177 O24         1.3120   -4.4150    3.3450 oh        1 MOL     -0.867582
    178 H84         0.9770   -5.1470    2.8270 ho        1 MOL      0.430438
    179 H85         1.0660   -4.6070    4.2470 ho        1 MOL      0.430438
    180 O25         0.9990   -0.0410    0.8690 oh        1 MOL     -0.867582
    181 H86         0.6070    0.6340    0.3160 ho        1 MOL      0.430438
    182 H87         0.4510   -0.0570    1.6550 ho        1 MOL      0.430438
    183 O26         3.2630    0.3190    2.4640 oh        1 MOL     -0.867582
    184 H88         3.9150    0.8670    2.0200 ho        1 MOL      0.430438
    185 H89         2.4250    0.7180    2.2160 ho        1 MOL      0.430438
    186 O27         4.0590   -2.7600    3.5430 oh        1 MOL     -0.867582
    187 H90         4.4180   -2.0860    4.1150 ho        1 MOL      0.430438
    188 H91         4.1320   -3.5710    4.0470 ho        1 MOL      0.430438
@<TRIPOS>BOND
     1    1    2 1   
     2    1    4 1   
     3    1    5 1   
     4    1    6 1   
     5    2    3 2   
     6    2    7 1   
     7    7    8 1   
     8    7   15 1   
     9    8    9 1   
    10    8   11 1   
    11    8   16 1   
    12    9   10 2   
    13    9   19 1   
    14   11   12 1   
    15   11   17 1   
    16   11   18 1   
    17   12   13 1   
    18   12   14 1   
    19   19   20 1   
    20   19   28 1   
    21   20   21 1   
    22   20   23 1   
    23   20   29 1   
    24   21   22 2   
    25   21   41 1   
    26   23   24 1   
    27   23   30 1   
    28   23   31 1   
    29   24   25 1   
    30   24   32 1   
    31   24   33 1   
    32   25   26 1   
    33   25   34 1   
    34   25   35 1   
    35   26   27 1   
    36   26   36 1   
    37   26   37 1   
    38   27   38 1   
    39   27   39 1   
    40   27   40 1   
    41   41   42 1   
    42   41   49 1   
    43   42   43 1   
    44   42   45 1   
    45   42   50 1   
    46   43   44 2   
    47   43   53 1   
    48   45   46 1   
    49   45   51 1   
    50   45   52 1   
    51   46   47 1   
    52   46   48 1   
    53   53   54 1   
    54   53   57 1   
    55   54   55 1   
    56   54   58 1   
    57   54   59 1   
    58   55   56 2   
    59   55   60 1   
    60   60   61 1   
    61   60   68 1   
    62   61   62 1   
    63   61   64 1   
    64   61   69 1   
    65   62   63 2   
    66   62   74 1   
    67   64   65 1   
    68   64   70 1   
    69   64   71 1   
    70   65   66 1   
    71   65   67 2   
    72   66   72 1   
    73   66   73 1   
    74   74   75 1   
    75   74   78 1   
    76   75   76 1   
    77   75   79 1   
    78   75   80 1   
    79   76   77 2   
    80   76   81 1   
    81   81   82 1   
    82   81   93 1   
    83   82   83 1   
    84   82   85 1   
    85   82   94 1   
    86   83   84 2   
    87   83  102 1   
    88   85   86 1   
    89   85   95 1   
    90   85   96 1   
    91   86   87 ar  
    92   86   88 ar  
    93   87   89 ar  
    94   87   97 1   
    95   88   90 ar  
    96   88   98 1   
    97   89   91 ar  
    98   89   99 1   
    99   90   91 ar  
   100   90  100 1   
   101   91   92 1   
   102   92  101 1   
   103  102  103 1   
   104  102  110 1   
   105  103  104 1   
   106  103  106 1   
   107  103  111 1   
   108  104  105 2   
   109  104  121 1   
   110  106  107 1   
   111  106  108 1   
   112  106  112 1   
   113  107  109 1   
   114  107  113 1   
   115  107  114 1   
   116  108  115 1   
   117  108  116 1   
   118  108  117 1   
   119  109  118 1   
   120  109  119 1   
   121  109  120 1   
   122  121  122 1   
   123  121  127 1   
   124  122  123 1   
   125  122  125 1   
   126  122  128 1   
   127  123  124 2   
   128  123  132 1   
   129  125  126 1   
   130  125  129 1   
   131  125  130 1   
   132  126  131 1   
   133  132  133 1   
   134  132  137 1   
   135  133  134 1   
   136  133  136 1   
   137  133  138 1   
   138  134  135 2   
   139  134  142 1   
   140  136  139 1   
   141  136  140 1   
   142  136  141 1   
   143  142  143 1   
   144  142  147 1   
   145  143  144 1   
   146  143  146 1   
   147  143  148 1   
   148  144  145 2   
   149  144  152 1   
   150  146  149 1   
   151  146  150 1   
   152  146  151 1   
   153  152  153 1   
   154  152  161 1   
   155  153  154 1   
   156  153  156 1   
   157  153  162 1   
   158  154  155 2   
   159  154  167 1   
   160  156  157 1   
   161  156  163 1   
   162  156  164 1   
   163  157  158 1   
   164  157  165 1   
   165  157  166 1   
   166  158  159 1   
   167  158  160 1   
   168  167  168 1   
   169  167  172 1   
   170  168  169 1   
   171  168  170 1   
   172  168  171 1   
   173  174  175 1   
   174  174  176 1   
   175  177  178 1   
   176  177  179 1   
   177  180  181 1   
   178  180  182 1   
   179  183  184 1   
   180  183  185 1   
   181  186  187 1   
   182  186  188 1   
@<TRIPOS>SUBSTRUCTURE
     1 MOL         1 TEMP              0 ****  ****    0 ROOT
