@<TRIPOS>MOLECULE
MOL
  181   177     1     0     0
SMALL
resp


@<TRIPOS>ATOM
      1 C1          4.6270   -0.5970    4.2480 c3        1 MOL     -0.438745
      2 C2          5.8850    0.0100    3.5880 c         1 MOL      0.680373
      3 O1          5.9510    1.2370    3.3680 o         1 MOL     -0.584687
      4 H1          4.5440   -0.2330    5.2720 hc        1 MOL      0.116609
      5 H2          3.7420   -0.3030    3.6850 hc        1 MOL      0.116609
      6 H3          4.7090   -1.6840    4.2550 hc        1 MOL      0.116609
      7 N1          6.9090   -0.7940    3.2060 n         1 MOL     -0.578033
      8 C3          8.2430   -0.3700    2.7910 c3        1 MOL      0.115026
      9 C4          8.5500   -1.1370    1.5130 c         1 MOL      0.499348
     10 O2          8.3270   -2.3420    1.4230 o         1 MOL     -0.534252
     11 C5          9.1990   -0.6850    3.9100 c3        1 MOL     -0.058432
     12 C6         10.6070   -0.2080    3.5920 c         1 MOL      0.662146
     13 O3         11.4990   -0.8990    3.0550 o         1 MOL     -0.723979
     14 O4         10.7750    1.0050    3.8540 o         1 MOL     -0.723979
     15 H4          6.7610   -1.7790    3.3700 hn        1 MOL      0.311887
     16 H5          8.3400    0.7080    2.6200 h1        1 MOL      0.056435
     17 H6          9.2330   -1.7580    4.0870 hc        1 MOL     -0.012635
     18 H7          8.9550   -0.1900    4.8570 hc        1 MOL     -0.012635
     19 N2          8.9170   -0.4230    0.4370 n         1 MOL     -0.432897
     20 C7          9.2700   -0.9280   -0.8990 c3        1 MOL      0.252554
     21 C8          7.9910   -1.2870   -1.7720 c         1 MOL      0.346461
     22 O5          7.9960   -1.3080   -3.0430 o         1 MOL     -0.487393
     23 C9         10.1590    0.1120   -1.5540 c3        1 MOL     -0.376731
     24 H8          9.0350    0.5640    0.6270 hn        1 MOL      0.275190
     25 H9          9.8020   -1.8630   -0.7170 h1        1 MOL      0.070082
     26 H10        10.8710    0.5670   -0.8650 hc        1 MOL      0.102136
     27 H11        10.6060   -0.2930   -2.4570 hc        1 MOL      0.102136
     28 H12         9.4740    0.8960   -1.8920 hc        1 MOL      0.102136
     29 N3          6.9090   -1.6440   -1.0890 n         1 MOL     -0.475657
     30 C10         5.5320   -1.6930   -1.5780 c3        1 MOL      0.452910
     31 C11         5.1870   -0.5250   -2.5780 c         1 MOL      0.137513
     32 O6          4.7180   -0.7590   -3.6810 o         1 MOL     -0.368029
     33 C12         5.1300   -3.1230   -1.9970 c3        1 MOL     -0.168696
     34 C13         3.6140   -3.2390   -2.2630 c         1 MOL      0.691845
     35 O7          3.1310   -4.2130   -2.9130 o         1 MOL     -0.760611
     36 O8          2.8760   -2.3750   -1.8640 o         1 MOL     -0.760611
     37 H13         6.9170   -1.6260   -0.0770 hn        1 MOL      0.246338
     38 H14         4.8330   -1.6190   -0.7500 h1        1 MOL     -0.018242
     39 H15         5.3960   -3.8000   -1.1820 hc        1 MOL      0.033061
     40 H16         5.5490   -3.3860   -2.9610 hc        1 MOL      0.033061
     41 N4          5.4210    0.6860   -2.1230 n         1 MOL     -0.118733
     42 C14         5.1270    1.9120   -2.8840 c3        1 MOL      0.018002
     43 C15         3.7470    2.1230   -3.5600 c         1 MOL      0.457152
     44 O9          3.6150    2.0850   -4.7740 o         1 MOL     -0.528873
     45 H17         5.8210    0.7140   -1.1980 hn        1 MOL      0.156309
     46 H18         5.8990    2.1480   -3.6160 h1        1 MOL      0.031348
     47 H19         5.2820    2.7300   -2.1760 h1        1 MOL      0.031348
     48 N5          2.7490    2.2160   -2.6950 n         1 MOL     -0.358776
     49 C16         1.3250    2.5400   -3.0230 c3        1 MOL      0.025732
     50 C17         0.9190    3.9870   -2.6170 c         1 MOL      0.473809
     51 O10         1.3170    4.5220   -1.6160 o         1 MOL     -0.512019
     52 C18         0.4080    1.5070   -2.3210 c3        1 MOL      0.207884
     53 C19        -0.9920    1.4580   -2.8330 c         1 MOL      0.338206
     54 N6         -1.4680    0.2600   -2.8690 n         1 MOL     -0.561592
     55 O11        -1.6620    2.3710   -3.2380 o         1 MOL     -0.553287
     56 H20         2.9850    2.1140   -1.7160 hn        1 MOL      0.229381
     57 H21         1.0930    2.4280   -4.0900 h1        1 MOL      0.038614
     58 H22         0.4050    1.6470   -1.2310 hc        1 MOL      0.020165
     59 H23         0.8790    0.5330   -2.3980 hc        1 MOL      0.020165
     60 H24        -0.8750   -0.5290   -2.6350 hn        1 MOL      0.307695
     61 H25        -2.3430    0.1270   -3.3640 hn        1 MOL      0.307695
     62 N7          0.0650    4.6270   -3.4250 n         1 MOL     -0.348797
     63 C20        -0.4760    5.9690   -3.1630 c3        1 MOL     -0.331527
     64 C21        -1.5530    6.0630   -2.0720 c         1 MOL      0.665245
     65 O12        -2.4140    5.2120   -1.9770 o         1 MOL     -0.507267
     66 H26        -0.2750    4.1610   -4.2510 hn        1 MOL      0.300565
     67 H27        -0.9370    6.2940   -4.1000 h1        1 MOL      0.135468
     68 H28         0.3560    6.6510   -2.9900 h1        1 MOL      0.135468
     69 N8         -1.4690    7.0240   -1.1800 n         1 MOL     -0.531475
     70 C22        -2.5530    7.3020   -0.0920 c3        1 MOL     -0.286150
     71 C23        -2.8230    6.1890    0.9060 c         1 MOL      0.409294
     72 O13        -3.9670    6.1470    1.3590 o         1 MOL     -0.546315
     73 C24        -2.3080    8.5700    0.7310 c3        1 MOL      0.542386
     74 C25        -1.2030    8.4700    1.8040 c3        1 MOL     -0.193862
     75 O14        -2.0040    9.7110   -0.0580 oh        1 MOL     -0.681425
     76 H29        -0.6300    7.5860   -1.1790 hn        1 MOL      0.282819
     77 H30        -3.4480    7.4970   -0.6900 h1        1 MOL      0.172195
     78 H31        -3.2240    8.7400    1.3010 h1        1 MOL      0.009194
     79 H32        -1.1530    9.6110   -0.4770 ho        1 MOL      0.397671
     80 H33        -0.8980    9.4690    2.1110 hc        1 MOL      0.032801
     81 H34        -1.6680    7.8800    2.5950 hc        1 MOL      0.032801
     82 H35        -0.3470    7.9530    1.3850 hc        1 MOL      0.032801
     83 N9         -1.9960    5.1890    1.0020 n         1 MOL      0.042816
     84 C26        -2.2480    4.0250    1.8100 c3        1 MOL     -0.136733
     85 C27        -1.5440    2.7960    1.1300 c         1 MOL      0.282824
     86 O15        -0.4630    2.8870    0.5590 o         1 MOL     -0.379479
     87 C28        -1.6910    4.1050    3.3440 c3        1 MOL      0.250523
     88 C29        -0.1450    4.2240    3.5910 c3        1 MOL     -0.231041
     89 C30        -2.5310    5.1300    4.1250 c3        1 MOL     -0.400658
     90 C31         0.5240    5.4650    2.9500 c3        1 MOL     -0.046195
     91 H36        -1.1400    5.1430    0.4650 hn        1 MOL      0.237352
     92 H37        -3.2970    3.7540    1.7180 h1        1 MOL      0.076240
     93 H38        -1.8770    3.1520    3.8450 hc        1 MOL     -0.034430
     94 H39         0.3990    3.3390    3.2770 hc        1 MOL      0.100572
     95 H40        -0.0600    4.3470    4.6720 hc        1 MOL      0.100572
     96 H41        -2.3940    5.1080    5.2080 hc        1 MOL      0.095953
     97 H42        -2.2070    6.1220    3.8290 hc        1 MOL      0.095953
     98 H43        -3.5830    5.1620    3.8160 hc        1 MOL      0.095953
     99 H44        -0.0520    6.3370    3.2800 hc        1 MOL      0.007476
    100 H45         1.5510    5.5370    3.3030 hc        1 MOL      0.007476
    101 H46         0.4410    5.4810    1.8680 hc        1 MOL      0.007476
    102 N10        -2.1560    1.6290    1.3150 n         1 MOL     -0.383964
    103 C32        -1.7730    0.3730    0.5090 c3        1 MOL     -0.007293
    104 C33        -3.0560   -0.4280    0.0600 c         1 MOL      0.696628
    105 O16        -3.1120   -1.6860    0.1250 o         1 MOL     -0.628312
    106 C34        -0.7370   -0.5390    1.2160 c3        1 MOL     -0.321568
    107 C35        -0.1380   -1.5720    0.2020 c         1 MOL      0.741174
    108 O17         0.0360   -1.2600   -0.9760 o         1 MOL     -0.737380
    109 O18         0.1130   -2.7440    0.4410 o         1 MOL     -0.737380
    110 H47        -2.9460    1.6360    1.9410 hn        1 MOL      0.265299
    111 H48        -1.3850    0.8300   -0.3950 h1        1 MOL      0.219755
    112 H49        -1.3520   -1.1490    1.8710 hc        1 MOL      0.109455
    113 H50        -0.0270   -0.0270    1.8640 hc        1 MOL      0.109455
    114 N11        -4.0860    0.2180   -0.4160 n         1 MOL     -0.550352
    115 C36        -5.3420   -0.5530   -0.6930 c3        1 MOL      0.112662
    116 C37        -5.8780   -1.3400    0.4290 c         1 MOL      0.286284
    117 O19        -6.3730   -0.7690    1.4180 o         1 MOL     -0.511313
    118 C38        -6.4190    0.4600   -0.9850 c3        1 MOL     -0.267599
    119 C39        -7.8460    0.0260   -1.2850 ca        1 MOL      0.006413
    120 C40        -8.0210   -0.9400   -2.2560 ca        1 MOL     -0.071057
    121 C41        -8.9350    0.5100   -0.4700 ca        1 MOL     -0.071057
    122 C42        -9.3050   -1.4120   -2.5800 ca        1 MOL     -0.201125
    123 C43       -10.2100   -0.0340   -0.8340 ca        1 MOL     -0.201125
    124 C44       -10.4230   -1.0090   -1.8270 ca        1 MOL     -0.029260
    125 H51        -4.0830    1.2040   -0.6600 hn        1 MOL      0.326839
    126 H52        -5.1360   -1.1590   -1.5890 h1        1 MOL      0.077233
    127 H53        -6.0920    1.0210   -1.8630 hc        1 MOL      0.120673
    128 H54        -6.5400    1.1740   -0.1760 hc        1 MOL      0.120673
    129 H55        -7.2460   -1.2430   -2.9470 ha        1 MOL      0.133845
    130 H56        -8.7970    1.2230    0.3250 ha        1 MOL      0.133845
    131 H57        -9.3560   -2.1930   -3.3310 ha        1 MOL      0.113164
    132 H58       -11.1440    0.2580   -0.3610 ha        1 MOL      0.113164
    133 H59       -11.3900   -1.3820   -2.1060 ha        1 MOL      0.094266
    134 N12        -6.1350   -2.6040    0.2470 n         1 MOL      0.004103
    135 C45        -6.7650   -3.4240    1.2790 c3        1 MOL      0.086117
    136 C46        -5.8040   -3.7420    2.4920 c         1 MOL      0.202416
    137 O20        -6.2520   -4.0550    3.6080 o         1 MOL     -0.509256
    138 C47        -7.1830   -4.7070    0.5760 c3        1 MOL     -0.053133
    139 C48        -7.2090   -4.4260   -0.8690 c3        1 MOL     -0.120199
    140 C49        -6.0000   -3.4730   -0.9950 c3        1 MOL      0.222277
    141 H60        -7.5890   -2.8670    1.7260 h1        1 MOL      0.069903
    142 H61        -6.4820   -5.5440    0.6740 hc        1 MOL      0.037166
    143 H62        -8.1520   -4.9810    0.9720 hc        1 MOL      0.037166
    144 H63        -7.0110   -5.3570   -1.3970 hc        1 MOL      0.039621
    145 H64        -8.1900   -4.0790   -1.1840 hc        1 MOL      0.039621
    146 H65        -5.0070   -3.9220   -1.0510 h1        1 MOL     -0.057480
    147 H66        -6.1520   -2.8640   -1.8920 h1        1 MOL     -0.057480
    148 N13        -4.5000   -3.4450    2.3220 n         1 MOL      0.005030
    149 C50        -3.3930   -3.8830    3.2330 c3        1 MOL     -0.294706
    150 C51        -3.0350   -2.7890    4.2980 c         1 MOL      0.469430
    151 O21        -2.1550   -3.1280    5.1200 o         1 MOL     -0.533660
    152 C52        -2.1680   -4.2050    2.3730 c3        1 MOL      0.072439
    153 C53        -2.4530   -5.4350    1.4270 c3        1 MOL      0.095113
    154 C54        -1.2930   -5.7350    0.4960 c         1 MOL      0.587393
    155 O22        -0.3580   -6.4650    0.8780 o         1 MOL     -0.700993
    156 O23        -1.3600   -5.1750   -0.6170 o         1 MOL     -0.700993
    157 H67        -4.1450   -3.0440    1.4650 hn        1 MOL      0.170907
    158 H68        -3.7870   -4.7290    3.7950 h1        1 MOL      0.161701
    159 H69        -1.3330   -4.4140    3.0290 hc        1 MOL      0.037191
    160 H70        -1.9570   -3.3670    1.7100 hc        1 MOL      0.037191
    161 H71        -3.3580   -5.2550    0.8430 hc        1 MOL     -0.046653
    162 H72        -2.7490   -6.2900    2.0440 hc        1 MOL     -0.046653
    163 N14        -3.7080   -1.6450    4.3780 n         1 MOL     -0.169056
    164 C55        -3.7860   -0.7060    5.4960 c3        1 MOL     -0.305959
    165 H73        -3.6360   -1.2430    6.4330 h1        1 MOL      0.123666
    166 H74        -3.0140    0.0550    5.3870 h1        1 MOL      0.123666
    167 H75        -4.7670   -0.2310    5.5040 h1        1 MOL      0.123666
    168 H76        -4.2400   -1.4360    3.5440 hn        1 MOL      0.201936
    169 Ca1         0.5880   -3.6740   -1.9120 Ca        1 MOL      1.756502
    170 O24        -2.2900   -3.1200   -2.0000 oh        1 MOL     -0.845558
    171 H77        -2.2890   -4.0150   -1.6560 ho        1 MOL      0.410401
    172 H78        -2.4690   -2.5660   -1.2340 ho        1 MOL      0.410401
    173 O25        -0.0470   -2.1680   -4.0500 oh        1 MOL     -0.845558
    174 H79         0.7260   -1.7360   -4.4100 ho        1 MOL      0.410401
    175 H80        -0.5970   -2.3480   -4.8070 ho        1 MOL      0.410401
    176 O26         1.8240   -5.7030   -0.7780 oh        1 MOL     -0.845558
    177 H81         1.1750   -6.1400   -0.2340 ho        1 MOL      0.410401
    178 H82         2.6690   -6.0500   -0.4810 ho        1 MOL      0.410401
    179 O27         0.3650   -5.8830   -3.6850 oh        1 MOL     -0.845558
    180 H83        -0.2470   -6.6240   -3.7020 ho        1 MOL      0.410401
    181 H84         1.2210   -6.2830   -3.8370 ho        1 MOL      0.410401
@<TRIPOS>BOND
     1    1    2 1   
     2    1    4 1   
     3    1    5 1   
     4    1    6 1   
     5    2    3 2   
     6    2    7 1   
     7    7    8 1   
     8    7   15 1   
     9    8    9 1   
    10    8   11 1   
    11    8   16 1   
    12    9   10 2   
    13    9   19 1   
    14   11   12 1   
    15   11   17 1   
    16   11   18 1   
    17   12   13 1   
    18   12   14 1   
    19   19   20 1   
    20   19   24 1   
    21   20   21 1   
    22   20   23 1   
    23   20   25 1   
    24   21   22 2   
    25   21   29 1   
    26   23   26 1   
    27   23   27 1   
    28   23   28 1   
    29   29   30 1   
    30   29   37 1   
    31   30   31 1   
    32   30   33 1   
    33   30   38 1   
    34   31   32 2   
    35   31   41 1   
    36   33   34 1   
    37   33   39 1   
    38   33   40 1   
    39   34   35 1   
    40   34   36 1   
    41   41   42 1   
    42   41   45 1   
    43   42   43 1   
    44   42   46 1   
    45   42   47 1   
    46   43   44 2   
    47   43   48 1   
    48   48   49 1   
    49   48   56 1   
    50   49   50 1   
    51   49   52 1   
    52   49   57 1   
    53   50   51 2   
    54   50   62 1   
    55   52   53 1   
    56   52   58 1   
    57   52   59 1   
    58   53   54 1   
    59   53   55 2   
    60   54   60 1   
    61   54   61 1   
    62   62   63 1   
    63   62   66 1   
    64   63   64 1   
    65   63   67 1   
    66   63   68 1   
    67   64   65 2   
    68   64   69 1   
    69   69   70 1   
    70   69   76 1   
    71   70   71 1   
    72   70   73 1   
    73   70   77 1   
    74   71   72 2   
    75   71   83 1   
    76   73   74 1   
    77   73   75 1   
    78   73   78 1   
    79   74   80 1   
    80   74   81 1   
    81   74   82 1   
    82   75   79 1   
    83   83   84 1   
    84   83   91 1   
    85   84   85 1   
    86   84   87 1   
    87   84   92 1   
    88   85   86 2   
    89   85  102 1   
    90   87   88 1   
    91   87   89 1   
    92   87   93 1   
    93   88   90 1   
    94   88   94 1   
    95   88   95 1   
    96   89   96 1   
    97   89   97 1   
    98   89   98 1   
    99   90   99 1   
   100   90  100 1   
   101   90  101 1   
   102  102  103 1   
   103  102  110 1   
   104  103  104 1   
   105  103  106 1   
   106  103  111 1   
   107  104  105 2   
   108  104  114 1   
   109  106  107 1   
   110  106  112 1   
   111  106  113 1   
   112  107  108 1   
   113  107  109 1   
   114  114  115 1   
   115  114  125 1   
   116  115  116 1   
   117  115  118 1   
   118  115  126 1   
   119  116  117 2   
   120  116  134 1   
   121  118  119 1   
   122  118  127 1   
   123  118  128 1   
   124  119  120 ar  
   125  119  121 ar  
   126  120  122 ar  
   127  120  129 1   
   128  121  123 ar  
   129  121  130 1   
   130  122  124 ar  
   131  122  131 1   
   132  123  124 ar  
   133  123  132 1   
   134  124  133 1   
   135  134  135 1   
   136  134  140 1   
   137  135  136 1   
   138  135  138 1   
   139  135  141 1   
   140  136  137 2   
   141  136  148 1   
   142  138  139 1   
   143  138  142 1   
   144  138  143 1   
   145  139  140 1   
   146  139  144 1   
   147  139  145 1   
   148  140  146 1   
   149  140  147 1   
   150  148  149 1   
   151  148  157 1   
   152  149  150 1   
   153  149  152 1   
   154  149  158 1   
   155  150  151 2   
   156  150  163 1   
   157  152  153 1   
   158  152  159 1   
   159  152  160 1   
   160  153  154 1   
   161  153  161 1   
   162  153  162 1   
   163  154  155 1   
   164  154  156 1   
   165  163  164 1   
   166  163  168 1   
   167  164  165 1   
   168  164  166 1   
   169  164  167 1   
   170  170  171 1   
   171  170  172 1   
   172  173  174 1   
   173  173  175 1   
   174  176  177 1   
   175  176  178 1   
   176  179  180 1   
   177  179  181 1   
@<TRIPOS>SUBSTRUCTURE
     1 MOL         1 TEMP              0 ****  ****    0 ROOT
