@<TRIPOS>MOLECULE
MOL
  201   193     1     0     0
SMALL
resp


@<TRIPOS>ATOM
      1 C1          6.7160    7.5950   -5.1260 c3        1 MOL     -0.425079
      2 C2          6.6050    6.8020   -3.7600 c         1 MOL      0.707683
      3 O1          7.5380    6.1410   -3.3020 o         1 MOL     -0.589134
      4 H1          7.7560    7.6110   -5.4520 hc        1 MOL      0.108857
      5 H2          6.1070    7.1030   -5.8840 hc        1 MOL      0.108857
      6 H3          6.3640    8.6170   -4.9840 hc        1 MOL      0.108857
      7 N1          5.5350    7.0180   -2.9890 n         1 MOL     -0.626730
      8 C3          5.2190    6.5420   -1.6390 c3        1 MOL      0.281077
      9 C4          4.8120    5.0170   -1.6290 c         1 MOL      0.526625
     10 O2          4.2580    4.5100   -2.5880 o         1 MOL     -0.569843
     11 C5          4.0980    7.3930   -1.0830 c3        1 MOL     -0.282244
     12 C6          4.5330    8.8870   -0.7930 c         1 MOL      0.672718
     13 O3          3.5900    9.6060   -0.4590 o         1 MOL     -0.630361
     14 O4          5.7310    9.2840   -0.8530 o         1 MOL     -0.630361
     15 H4          5.0390    7.8440   -3.2690 hn        1 MOL      0.321879
     16 H5          6.1030    6.6280   -1.0030 h1        1 MOL      0.001211
     17 H6          3.6700    6.9470   -0.1800 hc        1 MOL      0.053645
     18 H7          3.4020    7.3690   -1.9150 hc        1 MOL      0.053645
     19 N2          4.9750    4.4410   -0.4790 n         1 MOL     -0.388906
     20 C7          4.6320    3.0450   -0.1770 c3        1 MOL      0.138576
     21 C8          3.3870    3.0770    0.7170 c         1 MOL      0.306980
     22 O5          3.3510    3.7020    1.7550 o         1 MOL     -0.487575
     23 C9          5.7920    2.3680    0.5600 c3        1 MOL     -0.126998
     24 C10         6.9620    2.1570   -0.3810 c3        1 MOL     -0.030795
     25 C11         6.7210    1.2490   -1.5590 c3        1 MOL      0.007258
     26 C12         6.2230   -0.2400   -1.2360 c3        1 MOL      0.019633
     27 N3          6.2080   -1.1530   -2.4890 n4        1 MOL     -0.617494
     28 H8          5.2530    4.8940    0.3880 hn        1 MOL      0.274256
     29 H9          4.2960    2.4700   -1.0340 h1        1 MOL      0.015771
     30 H10         5.5490    1.3780    0.9560 hc        1 MOL      0.083486
     31 H11         6.1210    3.1110    1.2810 hc        1 MOL      0.083486
     32 H12         7.6970    1.6640    0.2680 hc        1 MOL      0.022315
     33 H13         7.3780    3.0900   -0.7710 hc        1 MOL      0.022315
     34 H14         7.6920    1.1100   -2.0200 hc        1 MOL      0.033787
     35 H15         6.0840    1.7700   -2.2770 hc        1 MOL      0.033787
     36 H16         5.2540   -0.1600   -0.7470 hx        1 MOL      0.126877
     37 H17         6.8700   -0.6710   -0.4710 hx        1 MOL      0.126877
     38 H18         5.5870   -0.8280   -3.2160 hn        1 MOL      0.361816
     39 H19         7.1230   -1.3130   -2.8910 hn        1 MOL      0.361816
     40 H20         5.7910   -2.0510   -2.2760 hn        1 MOL      0.361816
     41 N4          2.3190    2.2970    0.3410 n         1 MOL     -0.235933
     42 C13         1.0620    2.3300    1.0540 c3        1 MOL      0.393578
     43 C14         0.3550    0.8980    1.1410 c         1 MOL      0.400331
     44 O6         -0.6450    0.6040    0.4490 o         1 MOL     -0.488220
     45 C15         0.1360    3.3200    0.3190 c3        1 MOL     -0.580676
     46 C16        -1.2440    3.4870    0.9750 c         1 MOL      0.981138
     47 O7         -2.1750    3.9290    0.2630 o         1 MOL     -0.780722
     48 O8         -1.4450    3.3440    2.1720 o         1 MOL     -0.780722
     49 H21         2.3370    1.7430   -0.4950 hn        1 MOL      0.225814
     50 H22         1.1710    2.6890    2.0750 h1        1 MOL      0.047104
     51 H23         0.0060    3.0590   -0.7300 hc        1 MOL      0.130267
     52 H24         0.5500    4.3270    0.4060 hc        1 MOL      0.130267
     53 N5          0.8650   -0.0490    2.0190 n         1 MOL     -0.536670
     54 C17         2.0390    0.0270    2.9270 c3        1 MOL     -0.155990
     55 C18         3.3110   -0.5120    2.1960 c         1 MOL      0.702590
     56 O9          3.5040   -0.3500    1.0080 o         1 MOL     -0.565679
     57 H25         0.5210   -0.9920    1.9300 hn        1 MOL      0.329381
     58 H26         1.8390   -0.6510    3.7540 h1        1 MOL      0.109684
     59 H27         2.2450    1.0630    3.2210 h1        1 MOL      0.109684
     60 N6          4.1390   -1.1840    2.9620 n         1 MOL     -0.635703
     61 C19         5.4930   -1.5980    2.5600 c3        1 MOL     -0.030060
     62 C20         5.7460   -3.0450    2.4340 c         1 MOL      0.668456
     63 O10         6.6600   -3.4190    1.7370 o         1 MOL     -0.567821
     64 C21         6.4050   -0.7930    3.5410 c3        1 MOL     -0.064901
     65 C22         5.9450   -0.9580    5.0450 c         1 MOL      0.685351
     66 O11         5.2530   -1.9520    5.3350 o         1 MOL     -0.687246
     67 O12         6.4530   -0.1590    5.9220 o         1 MOL     -0.687246
     68 H28         3.9660   -1.2430    3.9530 hn        1 MOL      0.267685
     69 H29         5.6820   -1.1120    1.6060 h1        1 MOL     -0.016636
     70 H30         6.4300    0.2550    3.2670 hc        1 MOL      0.026265
     71 H31         7.3820   -1.2920    3.5600 hc        1 MOL      0.026265
     72 N7          4.8960   -3.9040    3.0070 n         1 MOL     -0.366759
     73 C23         4.9740   -5.3620    3.1400 c3        1 MOL     -0.131184
     74 C24         4.6170   -6.0640    1.8940 c         1 MOL      0.506947
     75 O13         3.7430   -6.9880    1.8490 o         1 MOL     -0.552426
     76 H32         4.1400   -3.3860    3.4360 hn        1 MOL      0.298353
     77 H33         4.1170   -5.5030    3.7990 h1        1 MOL      0.110362
     78 H34         5.9340   -5.7360    3.5040 h1        1 MOL      0.110362
     79 N8          5.1980   -5.5270    0.8230 n         1 MOL     -0.167408
     80 C25         4.8050   -5.7670   -0.6290 c3        1 MOL     -0.434078
     81 C26         4.3190   -4.5850   -1.4820 c         1 MOL      0.596562
     82 O14         4.9780   -3.5190   -1.5380 o         1 MOL     -0.528840
     83 C27         5.9360   -6.3980   -1.3700 c3        1 MOL      0.382167
     84 C28         7.3360   -5.7150   -1.3270 c3        1 MOL     -0.508335
     85 O15         6.0990   -7.6500   -0.8010 oh        1 MOL     -0.570130
     86 H35         5.8990   -4.8250    1.0080 hn        1 MOL      0.224151
     87 H36         3.9320   -6.4300   -0.6020 h1        1 MOL      0.148210
     88 H37         5.6350   -6.5130   -2.4130 h1        1 MOL      0.010285
     89 H38         5.3070   -8.1530   -1.0130 ho        1 MOL      0.377682
     90 H39         7.7780   -6.0680   -0.4000 hc        1 MOL      0.159715
     91 H40         7.8640   -6.0320   -2.2260 hc        1 MOL      0.159715
     92 H41         7.3010   -4.6340   -1.2840 hc        1 MOL      0.159715
     93 N9          3.0900   -4.6780   -1.9920 n         1 MOL     -0.348430
     94 C29         2.3490   -3.5780   -2.7720 c3        1 MOL     -0.055962
     95 C30         1.0650   -3.2130   -1.9960 c         1 MOL      0.600071
     96 O16         0.9290   -2.0240   -1.7680 o         1 MOL     -0.504282
     97 C31         2.1510   -4.0510   -4.2500 c3        1 MOL      0.076145
     98 C32         3.5140   -4.4450   -4.8900 c3        1 MOL     -0.003907
     99 C33         1.3200   -3.0530   -5.1420 c3        1 MOL     -0.489713
    100 C34         4.4600   -3.2940   -5.1400 c3        1 MOL     -0.038977
    101 H42         2.6280   -5.5730   -1.8810 hn        1 MOL      0.245409
    102 H43         2.9670   -2.6970   -2.6220 h1        1 MOL      0.137102
    103 H44         1.6510   -5.0160   -4.2920 hc        1 MOL      0.012360
    104 H45         3.2580   -4.7790   -5.8950 hc        1 MOL      0.012875
    105 H46         4.0740   -5.1960   -4.3320 hc        1 MOL      0.012875
    106 H47         1.9860   -2.2730   -5.5150 hc        1 MOL      0.151051
    107 H48         1.2170   -3.6640   -6.0350 hc        1 MOL      0.151051
    108 H49         0.3310   -2.7620   -4.7790 hc        1 MOL      0.151051
    109 H50         4.6110   -2.7950   -4.1830 hc        1 MOL      0.004754
    110 H51         5.4090   -3.6970   -5.4730 hc        1 MOL      0.004754
    111 H52         4.0570   -2.5090   -5.7910 hc        1 MOL      0.004754
    112 N10         0.3320   -4.0960   -1.3440 n         1 MOL     -0.465359
    113 C35        -0.7260   -3.8580   -0.3740 c3        1 MOL      0.010282
    114 C36        -1.8800   -4.8430   -0.5350 c         1 MOL      0.580128
    115 O17        -1.6790   -6.0560   -0.7490 o         1 MOL     -0.543335
    116 C37        -0.2380   -3.8030    1.1030 c3        1 MOL      0.183486
    117 C38         0.3990   -5.1280    1.5040 c3        1 MOL     -0.466978
    118 O18         0.8310   -2.8470    1.2530 oh        1 MOL     -0.506153
    119 H53         0.5010   -5.0810   -1.4620 hn        1 MOL      0.272320
    120 H54        -1.2750   -2.9320   -0.5860 h1        1 MOL      0.096550
    121 H55        -0.9730   -3.5300    1.8640 h1        1 MOL      0.051701
    122 H56         1.1820   -3.0410    2.1220 ho        1 MOL      0.374641
    123 H57         0.8010   -5.1200    2.5200 hc        1 MOL      0.130768
    124 H58        -0.2650   -5.9640    1.3130 hc        1 MOL      0.130768
    125 H59         1.2510   -5.3830    0.8830 hc        1 MOL      0.130768
    126 N11        -3.0420   -4.3510   -0.2990 n         1 MOL     -0.434365
    127 C39        -4.2890   -5.1570   -0.4460 c3        1 MOL     -0.143620
    128 C40        -5.4930   -4.3220   -0.9610 c         1 MOL      0.638021
    129 O19        -6.0230   -4.6410   -2.0340 o         1 MOL     -0.533350
    130 C41        -4.5940   -5.9370    0.8230 c3        1 MOL      0.237556
    131 C42        -5.8890   -6.7820    0.7280 c3        1 MOL     -0.351561
    132 O20        -4.8450   -4.9950    1.8940 oh        1 MOL     -0.573379
    133 H60        -3.1110   -3.4510    0.1730 hn        1 MOL      0.256693
    134 H61        -4.0870   -5.8180   -1.2910 h1        1 MOL      0.128997
    135 H62        -3.7710   -6.5890    1.1220 h1        1 MOL      0.083110
    136 H63        -4.0060   -4.9630    2.3560 ho        1 MOL      0.382764
    137 H64        -6.0140   -7.1220    1.7540 hc        1 MOL      0.107156
    138 H65        -6.7630   -6.3000    0.3060 hc        1 MOL      0.107156
    139 H66        -5.7840   -7.6800    0.1230 hc        1 MOL      0.107156
    140 N12        -5.9220   -3.2940   -0.1960 n         1 MOL     -0.300983
    141 C43        -6.8060   -2.2220   -0.6780 c3        1 MOL     -0.344988
    142 C44        -6.5850   -0.9250    0.0470 c         1 MOL      0.697776
    143 O21        -6.3610   -0.7790    1.2610 o         1 MOL     -0.515393
    144 C45        -8.2670   -2.7000   -0.4470 c3        1 MOL      0.003620
    145 C46        -9.4180   -2.1550   -1.3080 c3        1 MOL     -0.005743
    146 C47       -10.7980   -2.2520   -0.5230 c3        1 MOL     -0.217044
    147 C48       -11.8240   -1.8490   -1.5940 c3        1 MOL      0.290192
    148 N13       -13.1540   -2.0140   -1.0000 n4        1 MOL     -0.250447
    149 H67        -5.5800   -3.2540    0.7450 hn        1 MOL      0.230308
    150 H68        -6.6720   -2.0850   -1.7530 h1        1 MOL      0.119747
    151 H69        -8.5790   -2.4640    0.5720 hc        1 MOL      0.053137
    152 H70        -8.3460   -3.7810   -0.5700 hc        1 MOL      0.053137
    153 H71        -9.4200   -2.7360   -2.2230 hc        1 MOL      0.052516
    154 H72        -9.2040   -1.0940   -1.4530 hc        1 MOL      0.052516
    155 H73       -10.7530   -1.5700    0.3260 hc        1 MOL      0.056660
    156 H74       -11.0170   -3.2710   -0.2040 hc        1 MOL      0.056660
    157 H75       -11.6440   -2.4440   -2.4920 hx        1 MOL      0.000178
    158 H76       -11.6060   -0.8210   -1.8770 hx        1 MOL      0.000178
    159 H77       -13.8730   -1.9000   -1.6980 hn        1 MOL      0.239321
    160 H78       -13.2340   -2.9520   -0.6210 hn        1 MOL      0.239321
    161 H79       -13.3090   -1.3610   -0.2420 hn        1 MOL      0.239321
    162 N14        -6.7470    0.0860   -0.7660 n         1 MOL     -0.289619
    163 C49        -6.6150    1.4980   -0.3200 c3        1 MOL     -0.196212
    164 C50        -5.1740    1.8010    0.2130 c         1 MOL      0.443856
    165 O22        -4.9860    1.9460    1.4300 o         1 MOL     -0.559846
    166 C51        -7.1790    2.5080   -1.3910 c3        1 MOL     -0.043531
    167 C52        -8.6970    2.5330   -1.4660 c3        1 MOL     -0.299683
    168 C53        -9.0810    3.3740   -2.7120 c         1 MOL      0.695410
    169 O23       -10.1880    3.3040   -3.2210 o         1 MOL     -0.689432
    170 O24        -8.3200    4.2600   -3.1400 o         1 MOL     -0.689432
    171 H80        -7.3260   -0.0700   -1.5740 hn        1 MOL      0.246939
    172 H81        -7.2850    1.5560    0.5390 h1        1 MOL      0.083021
    173 H82        -6.8430    2.3160   -2.4030 hc        1 MOL      0.073638
    174 H83        -6.8570    3.5320   -1.2120 hc        1 MOL      0.073638
    175 H84        -9.1500    2.9870   -0.5810 hc        1 MOL      0.061816
    176 H85        -9.1900    1.5530   -1.4570 hc        1 MOL      0.061816
    177 N15        -4.1260    1.9110   -0.6680 n         1 MOL     -0.215785
    178 C54        -4.0300    1.4520   -2.1000 c3        1 MOL     -0.093897
    179 H86        -3.1100    1.8350   -2.5420 h1        1 MOL      0.073907
    180 H87        -4.0220    0.3630   -2.1330 h1        1 MOL      0.073907
    181 H88        -4.8860    1.8270   -2.6610 h1        1 MOL      0.073907
    182 H89        -3.2590    2.1290   -0.2020 hn        1 MOL      0.202493
    183 Ca1        -3.8580    4.3250    2.4030 Ca        1 MOL      1.574052
    184 O25        -6.3210    3.7670    3.1500 oh        1 MOL     -0.744601
    185 H90        -7.0680    4.2270    3.5400 ho        1 MOL      0.384722
    186 H91        -6.5540    2.8370    3.2080 ho        1 MOL      0.384722
    187 O26        -3.7120    2.3530    4.2600 oh        1 MOL     -0.744601
    188 H92        -3.8170    2.9060    5.0330 ho        1 MOL      0.384722
    189 H93        -4.2620    1.5860    4.4360 ho        1 MOL      0.384722
    190 O27        -5.1430    5.5610    0.3420 oh        1 MOL     -0.744601
    191 H94        -5.8970    6.1240    0.5160 ho        1 MOL      0.384722
    192 H95        -5.0530    5.5850   -0.6200 ho        1 MOL      0.384722
    193 O28        -1.9430    6.5410    1.5770 oh        1 MOL     -0.744601
    194 H96        -1.8600    7.4870    1.4820 ho        1 MOL      0.384722
    195 H97        -1.9420    6.2160    0.6740 ho        1 MOL      0.384722
    196 O29        -4.8040    6.7190    2.9430 oh        1 MOL     -0.744601
    197 H98        -4.1500    7.4280    2.9550 ho        1 MOL      0.384722
    198 H99        -5.3880    6.9260    3.6730 ho        1 MOL      0.384722
    199 O30        -2.5450    5.4030    4.6630 oh        1 MOL     -0.744601
    200 H100       -1.6220    5.4440    4.9160 ho        1 MOL      0.384722
    201 H101       -3.0230    5.4100    5.4880 ho        1 MOL      0.384722
@<TRIPOS>BOND
     1    1    2 1   
     2    1    4 1   
     3    1    5 1   
     4    1    6 1   
     5    2    3 2   
     6    2    7 1   
     7    7    8 1   
     8    7   15 1   
     9    8    9 1   
    10    8   11 1   
    11    8   16 1   
    12    9   10 2   
    13    9   19 1   
    14   11   12 1   
    15   11   17 1   
    16   11   18 1   
    17   12   13 1   
    18   12   14 1   
    19   19   20 1   
    20   19   28 1   
    21   20   21 1   
    22   20   23 1   
    23   20   29 1   
    24   21   22 2   
    25   21   41 1   
    26   23   24 1   
    27   23   30 1   
    28   23   31 1   
    29   24   25 1   
    30   24   32 1   
    31   24   33 1   
    32   25   26 1   
    33   25   34 1   
    34   25   35 1   
    35   26   27 1   
    36   26   36 1   
    37   26   37 1   
    38   27   38 1   
    39   27   39 1   
    40   27   40 1   
    41   41   42 1   
    42   41   49 1   
    43   42   43 1   
    44   42   45 1   
    45   42   50 1   
    46   43   44 2   
    47   43   53 1   
    48   45   46 1   
    49   45   51 1   
    50   45   52 1   
    51   46   47 1   
    52   46   48 1   
    53   53   54 1   
    54   53   57 1   
    55   54   55 1   
    56   54   58 1   
    57   54   59 1   
    58   55   56 2   
    59   55   60 1   
    60   60   61 1   
    61   60   68 1   
    62   61   62 1   
    63   61   64 1   
    64   61   69 1   
    65   62   63 2   
    66   62   72 1   
    67   64   65 1   
    68   64   70 1   
    69   64   71 1   
    70   65   66 1   
    71   65   67 1   
    72   72   73 1   
    73   72   76 1   
    74   73   74 1   
    75   73   77 1   
    76   73   78 1   
    77   74   75 2   
    78   74   79 1   
    79   79   80 1   
    80   79   86 1   
    81   80   81 1   
    82   80   83 1   
    83   80   87 1   
    84   81   82 2   
    85   81   93 1   
    86   83   84 1   
    87   83   85 1   
    88   83   88 1   
    89   84   90 1   
    90   84   91 1   
    91   84   92 1   
    92   85   89 1   
    93   93   94 1   
    94   93  101 1   
    95   94   95 1   
    96   94   97 1   
    97   94  102 1   
    98   95   96 2   
    99   95  112 1   
   100   97   98 1   
   101   97   99 1   
   102   97  103 1   
   103   98  100 1   
   104   98  104 1   
   105   98  105 1   
   106   99  106 1   
   107   99  107 1   
   108   99  108 1   
   109  100  109 1   
   110  100  110 1   
   111  100  111 1   
   112  112  113 1   
   113  112  119 1   
   114  113  114 1   
   115  113  116 1   
   116  113  120 1   
   117  114  115 2   
   118  114  126 1   
   119  116  117 1   
   120  116  118 1   
   121  116  121 1   
   122  117  123 1   
   123  117  124 1   
   124  117  125 1   
   125  118  122 1   
   126  126  127 1   
   127  126  133 1   
   128  127  128 1   
   129  127  130 1   
   130  127  134 1   
   131  128  129 2   
   132  128  140 1   
   133  130  131 1   
   134  130  132 1   
   135  130  135 1   
   136  131  137 1   
   137  131  138 1   
   138  131  139 1   
   139  132  136 1   
   140  140  141 1   
   141  140  149 1   
   142  141  142 1   
   143  141  144 1   
   144  141  150 1   
   145  142  143 2   
   146  142  162 1   
   147  144  145 1   
   148  144  151 1   
   149  144  152 1   
   150  145  146 1   
   151  145  153 1   
   152  145  154 1   
   153  146  147 1   
   154  146  155 1   
   155  146  156 1   
   156  147  148 1   
   157  147  157 1   
   158  147  158 1   
   159  148  159 1   
   160  148  160 1   
   161  148  161 1   
   162  162  163 1   
   163  162  171 1   
   164  163  164 1   
   165  163  166 1   
   166  163  172 1   
   167  164  165 2   
   168  164  177 1   
   169  166  167 1   
   170  166  173 1   
   171  166  174 1   
   172  167  168 1   
   173  167  175 1   
   174  167  176 1   
   175  168  169 1   
   176  168  170 1   
   177  177  178 1   
   178  177  182 1   
   179  178  179 1   
   180  178  180 1   
   181  178  181 1   
   182  184  185 1   
   183  184  186 1   
   184  187  188 1   
   185  187  189 1   
   186  190  191 1   
   187  190  192 1   
   188  193  194 1   
   189  193  195 1   
   190  196  197 1   
   191  196  198 1   
   192  199  200 1   
   193  199  201 1   
@<TRIPOS>SUBSTRUCTURE
     1 MOL         1 TEMP              0 ****  ****    0 ROOT
