@<TRIPOS>MOLECULE
MOL
  178   175     1     0     0
SMALL
resp


@<TRIPOS>ATOM
      1 C1          0.5440    7.0210   -1.6600 c3        1 MOL     -0.375257
      2 C2          1.8870    6.5770   -1.1130 c         1 MOL      0.782089
      3 O1          2.2540    7.0330   -0.0380 o         1 MOL     -0.608634
      4 H1          0.5710    6.9980   -2.7490 hc        1 MOL      0.085449
      5 H2         -0.2350    6.3480   -1.3030 hc        1 MOL      0.085449
      6 H3          0.3320    8.0360   -1.3250 hc        1 MOL      0.085449
      7 N1          2.6130    5.8280   -1.9390 n         1 MOL     -0.688433
      8 C3          3.9690    5.3850   -1.5590 c3        1 MOL      0.305192
      9 C4          3.9770    4.2330   -0.5690 c         1 MOL      0.390435
     10 O2          3.3960    3.1710   -0.6910 o         1 MOL     -0.506146
     11 C5          4.7690    5.0550   -2.8100 c3        1 MOL     -0.101590
     12 C6          6.1890    4.8200   -2.7020 c         1 MOL      0.632508
     13 O3          6.8880    5.7380   -2.2430 o         1 MOL     -0.710995
     14 O4          6.6010    3.6250   -2.8520 o         1 MOL     -0.710995
     15 H4          2.2610    5.5670   -2.8440 hn        1 MOL      0.335240
     16 H5          4.5440    6.2120   -1.1530 h1        1 MOL      0.003997
     17 H6          4.5240    5.8410   -3.5180 hc        1 MOL     -0.017124
     18 H7          4.3060    4.1260   -3.1650 hc        1 MOL     -0.017124
     19 N2          4.7750    4.3630    0.4640 n         1 MOL     -0.287498
     20 C7          4.8770    3.4730    1.6100 c3        1 MOL      0.151987
     21 C8          3.5170    3.2990    2.3550 c         1 MOL      0.438642
     22 O5          2.5810    4.0740    2.2380 o         1 MOL     -0.532581
     23 C9          5.9280    4.1450    2.5860 c3        1 MOL     -0.497678
     24 H8          5.3030    5.2220    0.4890 hn        1 MOL      0.249418
     25 H9          5.2150    2.5070    1.2310 h1        1 MOL      0.145436
     26 H10         6.0300    3.5510    3.4970 hc        1 MOL      0.142183
     27 H11         6.9370    4.1850    2.1650 hc        1 MOL      0.142183
     28 H12         5.5230    5.0920    2.9300 hc        1 MOL      0.142183
     29 N3          3.3420    2.4410    3.3250 n         1 MOL     -0.270874
     30 C10         4.2910    1.3250    3.5800 c3        1 MOL      0.011666
     31 C11         4.3460    0.3090    2.4290 c         1 MOL      0.302277
     32 O6          3.5990    0.4050    1.4250 o         1 MOL     -0.467278
     33 C12         3.7410    0.6780    4.8540 c3        1 MOL     -0.149358
     34 C13         2.2530    0.3100    5.0020 c         1 MOL      0.712333
     35 O7          1.5650    0.1630    3.9790 o         1 MOL     -0.694078
     36 O8          1.7690    0.2090    6.1540 o         1 MOL     -0.694078
     37 H13         2.6060    2.5680    4.0000 hn        1 MOL      0.265135
     38 H14         5.2840    1.6850    3.8280 h1        1 MOL      0.041180
     39 H15         3.9990    1.3100    5.7060 hc        1 MOL      0.018564
     40 H16         4.3060   -0.2370    4.9900 hc        1 MOL      0.018564
     41 N4          5.3100   -0.6360    2.4290 n         1 MOL     -0.396257
     42 C14         5.8010   -1.4210    1.3300 c3        1 MOL     -0.049888
     43 C15         6.6830   -0.6630    0.3520 c         1 MOL      0.697483
     44 O9          7.0250    0.5220    0.5020 o         1 MOL     -0.525731
     45 H17         5.7670   -0.6640    3.3310 hn        1 MOL      0.301628
     46 H18         4.9870   -1.8070    0.7160 h1        1 MOL      0.063197
     47 H19         6.4120   -2.2910    1.5960 h1        1 MOL      0.063197
     48 N5          7.0640   -1.3790   -0.7380 n         1 MOL     -0.606809
     49 C16         6.8760   -2.7900   -0.9910 c3        1 MOL      0.121743
     50 C17         6.1410   -3.0050   -2.3280 c         1 MOL      0.575417
     51 O10         6.2280   -4.0710   -2.9050 o         1 MOL     -0.548826
     52 C18         8.3100   -3.3950   -0.9540 c3        1 MOL     -0.179887
     53 C19         8.8680   -3.4150    0.4630 c         1 MOL      0.642137
     54 N6          8.2570   -4.1260    1.3740 n         1 MOL     -0.781020
     55 O11         9.8090   -2.6880    0.7050 o         1 MOL     -0.538866
     56 H20         7.6400   -0.9120   -1.4360 hn        1 MOL      0.336772
     57 H21         6.3000   -3.3630   -0.2640 h1        1 MOL     -0.011587
     58 H22         9.0100   -2.8980   -1.6260 hc        1 MOL      0.062120
     59 H23         8.2910   -4.4320   -1.3000 hc        1 MOL      0.062120
     60 H24         7.4950   -4.7540    1.1250 hn        1 MOL      0.367738
     61 H25         8.7020   -4.1810    2.2710 hn        1 MOL      0.367738
     62 N7          5.3720   -2.0500   -2.8760 n         1 MOL     -0.429171
     63 C20         4.4360   -2.2720   -4.0490 c3        1 MOL     -0.094160
     64 C21         3.0910   -2.9310   -3.6100 c         1 MOL      0.525355
     65 O12         2.2460   -3.3560   -4.4190 o         1 MOL     -0.559624
     66 H26         5.2320   -1.1630   -2.4120 hn        1 MOL      0.301298
     67 H27         4.9040   -3.0280   -4.6900 h1        1 MOL      0.123187
     68 H28         4.3030   -1.4210   -4.7090 h1        1 MOL      0.123187
     69 N8          2.8730   -3.1200   -2.3080 n         1 MOL     -0.360950
     70 C22         1.8700   -3.9590   -1.6340 c3        1 MOL      0.098031
     71 C23         0.6790   -3.2530   -1.0370 c         1 MOL      0.593189
     72 O13         0.7000   -2.1150   -0.4530 o         1 MOL     -0.666883
     73 C24         2.5750   -4.8670   -0.6370 c3        1 MOL      0.186532
     74 C25         3.2550   -6.0460   -1.4190 c3        1 MOL     -0.339490
     75 O14         3.5340   -4.0680    0.1610 oh        1 MOL     -0.479911
     76 H29         3.5180   -2.6620   -1.6800 hn        1 MOL      0.223269
     77 H30         1.4220   -4.6280   -2.3710 h1        1 MOL      0.071460
     78 H31         1.7800   -5.2890   -0.0230 h1        1 MOL      0.036936
     79 H32         4.0560   -4.6880    0.6740 ho        1 MOL      0.346802
     80 H33         3.5910   -5.6490   -2.3750 hc        1 MOL      0.095641
     81 H34         4.0840   -6.5540   -0.9200 hc        1 MOL      0.095641
     82 H35         2.6290   -6.9080   -1.6190 hc        1 MOL      0.095641
     83 N9         -0.4170   -3.9410   -1.2380 n         1 MOL     -0.313260
     84 C26        -1.7800   -3.3290   -1.1840 c3        1 MOL     -0.160802
     85 C27        -2.5220   -3.7720    0.1040 c         1 MOL      0.382760
     86 O15        -2.6540   -4.9600    0.4520 o         1 MOL     -0.551298
     87 C28        -2.5790   -3.7730   -2.3830 c3        1 MOL      0.010093
     88 C29        -4.0360   -3.2710   -2.3450 c3        1 MOL      0.201126
     89 C30        -1.8090   -3.1780   -3.5980 c3        1 MOL     -0.183915
     90 C31        -4.9290   -3.6890   -3.5190 c3        1 MOL     -0.199881
     91 H36        -0.3710   -4.8120   -1.7490 hn        1 MOL      0.241389
     92 H37        -1.8180   -2.2420   -1.2290 h1        1 MOL      0.222642
     93 H38        -2.5870   -4.8420   -2.5770 hc        1 MOL      0.041225
     94 H39        -3.9890   -2.1840   -2.2880 hc        1 MOL     -0.025864
     95 H40        -4.5470   -3.6040   -1.4430 hc        1 MOL     -0.025864
     96 H41        -2.3970   -3.3340   -4.5070 hc        1 MOL      0.044914
     97 H42        -1.6460   -2.0930   -3.6290 hc        1 MOL      0.044914
     98 H43        -0.7930   -3.5430   -3.7490 hc        1 MOL      0.044914
     99 H44        -4.5670   -3.2210   -4.4400 hc        1 MOL      0.029258
    100 H45        -4.8150   -4.7610   -3.6210 hc        1 MOL      0.029258
    101 H46        -5.9550   -3.3570   -3.3450 hc        1 MOL      0.029258
    102 N10        -2.9980   -2.7310    0.7840 n         1 MOL     -0.013669
    103 C32        -3.8490   -2.7690    1.9900 c3        1 MOL     -0.053607
    104 C33        -5.2660   -2.1910    1.9330 c         1 MOL      0.488146
    105 O16        -6.0520   -2.4580    2.8330 o         1 MOL     -0.569451
    106 C34        -3.1000   -2.0680    3.1750 c3        1 MOL      0.050072
    107 C35        -1.5810   -2.3090    3.1940 c         1 MOL      0.725516
    108 O17        -1.2330   -3.4060    3.6490 o         1 MOL     -0.723088
    109 O18        -0.7450   -1.4440    2.8570 o         1 MOL     -0.723088
    110 H47        -2.8950   -1.7860    0.4380 hn        1 MOL      0.098785
    111 H48        -3.8820   -3.8170    2.3020 h1        1 MOL      0.076342
    112 H49        -3.4870   -2.4220    4.1360 hc        1 MOL     -0.028388
    113 H50        -3.1200   -0.9790    3.1940 hc        1 MOL     -0.028388
    114 N11        -5.5140   -1.4000    0.9570 n         1 MOL     -0.613437
    115 C36        -6.7170   -0.5580    0.8820 c3        1 MOL      0.518325
    116 C37        -6.4840    0.8430    0.3240 c         1 MOL      0.248864
    117 O19        -7.0130    1.1490   -0.7750 o         1 MOL     -0.440086
    118 C38        -7.7960   -1.4340    0.2560 c3        1 MOL     -0.289279
    119 C39        -9.1770   -0.9890    0.6760 ca        1 MOL      0.141523
    120 C40        -9.7830    0.0370   -0.0500 ca        1 MOL     -0.196470
    121 C41        -9.8390   -1.5830    1.7440 ca        1 MOL     -0.196470
    122 C42       -11.0370    0.5970    0.2820 ca        1 MOL     -0.100713
    123 C43       -11.0920   -1.0510    2.1070 ca        1 MOL     -0.100713
    124 C44       -11.6740    0.0920    1.4690 ca        1 MOL     -0.172862
    125 H51        -4.7130   -1.1330    0.3970 hn        1 MOL      0.282555
    126 H52        -7.0320   -0.2870    1.8880 h1        1 MOL     -0.020170
    127 H53        -7.6590   -2.4880    0.4970 hc        1 MOL      0.104147
    128 H54        -7.6690   -1.4750   -0.8260 hc        1 MOL      0.104147
    129 H55        -9.2900    0.4900   -0.8970 ha        1 MOL      0.133499
    130 H56        -9.4270   -2.4250    2.2840 ha        1 MOL      0.133499
    131 H57       -11.5270    1.3570   -0.2910 ha        1 MOL      0.101006
    132 H58       -11.6740   -1.4200    2.9490 ha        1 MOL      0.101006
    133 H59       -12.6540    0.4680    1.7210 ha        1 MOL      0.106615
    134 N12        -5.6880    1.6920    0.9940 n         1 MOL     -0.093875
    135 C45        -5.5050    3.1090    0.6610 c3        1 MOL      0.010792
    136 C46        -5.2500    3.2990   -0.8030 c         1 MOL      0.136653
    137 O20        -5.6810    4.2650   -1.4380 o         1 MOL     -0.486817
    138 C47        -4.2820    3.5760    1.5450 c3        1 MOL      0.160831
    139 C48        -4.5110    2.7520    2.7730 c3        1 MOL     -0.240818
    140 C49        -4.9200    1.3870    2.1840 c3        1 MOL     -0.091441
    141 H60        -6.3600    3.7070    0.9720 h1        1 MOL      0.079173
    142 H61        -3.3090    3.4760    1.0690 hc        1 MOL      0.001263
    143 H62        -4.3870    4.6270    1.8090 hc        1 MOL      0.001263
    144 H63        -3.5700    2.7070    3.3100 hc        1 MOL      0.079964
    145 H64        -5.3600    3.1620    3.3190 hc        1 MOL      0.079964
    146 H65        -3.9930    0.8330    2.0080 h1        1 MOL      0.106943
    147 H66        -5.5340    0.9740    2.9830 h1        1 MOL      0.106943
    148 N13        -4.4180    2.4360   -1.3050 n         1 MOL      0.039899
    149 C50        -3.8360    2.4400   -2.6580 c3        1 MOL     -0.119625
    150 C51        -4.9110    2.2390   -3.7870 c         1 MOL      0.417974
    151 O21        -4.8460    2.8570   -4.8790 o         1 MOL     -0.567617
    152 C52        -2.7280    1.2890   -2.7200 c3        1 MOL     -0.088404
    153 C53        -1.7330    1.2420   -1.5500 c3        1 MOL      0.037262
    154 C54        -2.1680    0.2290   -0.4980 c         1 MOL      0.664915
    155 O22        -1.3140   -0.3150    0.2020 o         1 MOL     -0.719777
    156 O23        -3.4270   -0.0280   -0.3580 o         1 MOL     -0.719777
    157 H67        -4.1990    1.6120   -0.7620 hn        1 MOL      0.211406
    158 H68        -3.3200    3.3720   -2.8920 h1        1 MOL      0.094942
    159 H69        -2.1350    1.4640   -3.6240 hc        1 MOL      0.021064
    160 H70        -3.2560    0.3410   -2.8060 hc        1 MOL      0.021064
    161 H71        -1.7740    2.2160   -1.0750 hc        1 MOL      0.007246
    162 H72        -0.7580    1.0530   -1.9720 hc        1 MOL      0.007246
    163 N14        -5.9720    1.5000   -3.5380 n         1 MOL     -0.067808
    164 C55        -7.1750    1.3050   -4.3230 c3        1 MOL     -0.311424
    165 H73        -7.1370    1.9380   -5.2090 h1        1 MOL      0.112368
    166 H74        -7.2460    0.2610   -4.6260 h1        1 MOL      0.112368
    167 H75        -8.0470    1.5700   -3.7240 h1        1 MOL      0.112368
    168 H76        -6.0410    1.0390   -2.6370 hn        1 MOL      0.153726
    169 Ca1         0.8840   -0.2670    1.4050 Ca        1 MOL      1.772732
    170 O24         0.3960    2.2670    2.1220 oh        1 MOL     -0.887152
    171 H77        -0.0880    2.6040    2.8660 ho        1 MOL      0.407865
    172 H78         1.1380    2.8640    2.0330 ho        1 MOL      0.407865
    173 O25         1.3160    1.5310   -0.5760 oh        1 MOL     -0.887152
    174 H79         0.7740    1.9830   -1.2170 ho        1 MOL      0.407865
    175 H80         2.0810    2.1030   -0.4550 ho        1 MOL      0.407865
    176 O26         2.2670   -2.4810    1.9770 oh        1 MOL     -0.887152
    177 H81         2.7220   -3.1420    1.4500 ho        1 MOL      0.407865
    178 H82         2.2820   -2.8440    2.8630 ho        1 MOL      0.407865
@<TRIPOS>BOND
     1    1    2 1   
     2    1    4 1   
     3    1    5 1   
     4    1    6 1   
     5    2    3 2   
     6    2    7 1   
     7    7    8 1   
     8    7   15 1   
     9    8    9 1   
    10    8   11 1   
    11    8   16 1   
    12    9   10 2   
    13    9   19 1   
    14   11   12 1   
    15   11   17 1   
    16   11   18 1   
    17   12   13 1   
    18   12   14 1   
    19   19   20 1   
    20   19   24 1   
    21   20   21 1   
    22   20   23 1   
    23   20   25 1   
    24   21   22 2   
    25   21   29 1   
    26   23   26 1   
    27   23   27 1   
    28   23   28 1   
    29   29   30 1   
    30   29   37 1   
    31   30   31 1   
    32   30   33 1   
    33   30   38 1   
    34   31   32 2   
    35   31   41 1   
    36   33   34 1   
    37   33   39 1   
    38   33   40 1   
    39   34   35 1   
    40   34   36 1   
    41   41   42 1   
    42   41   45 1   
    43   42   43 1   
    44   42   46 1   
    45   42   47 1   
    46   43   44 2   
    47   43   48 1   
    48   48   49 1   
    49   48   56 1   
    50   49   50 1   
    51   49   52 1   
    52   49   57 1   
    53   50   51 2   
    54   50   62 1   
    55   52   53 1   
    56   52   58 1   
    57   52   59 1   
    58   53   54 1   
    59   53   55 2   
    60   54   60 1   
    61   54   61 1   
    62   62   63 1   
    63   62   66 1   
    64   63   64 1   
    65   63   67 1   
    66   63   68 1   
    67   64   65 2   
    68   64   69 1   
    69   69   70 1   
    70   69   76 1   
    71   70   71 1   
    72   70   73 1   
    73   70   77 1   
    74   71   72 2   
    75   71   83 1   
    76   73   74 1   
    77   73   75 1   
    78   73   78 1   
    79   74   80 1   
    80   74   81 1   
    81   74   82 1   
    82   75   79 1   
    83   83   84 1   
    84   83   91 1   
    85   84   85 1   
    86   84   87 1   
    87   84   92 1   
    88   85   86 2   
    89   85  102 1   
    90   87   88 1   
    91   87   89 1   
    92   87   93 1   
    93   88   90 1   
    94   88   94 1   
    95   88   95 1   
    96   89   96 1   
    97   89   97 1   
    98   89   98 1   
    99   90   99 1   
   100   90  100 1   
   101   90  101 1   
   102  102  103 1   
   103  102  110 1   
   104  103  104 1   
   105  103  106 1   
   106  103  111 1   
   107  104  105 2   
   108  104  114 1   
   109  106  107 1   
   110  106  112 1   
   111  106  113 1   
   112  107  108 1   
   113  107  109 1   
   114  114  115 1   
   115  114  125 1   
   116  115  116 1   
   117  115  118 1   
   118  115  126 1   
   119  116  117 2   
   120  116  134 1   
   121  118  119 1   
   122  118  127 1   
   123  118  128 1   
   124  119  120 ar  
   125  119  121 ar  
   126  120  122 ar  
   127  120  129 1   
   128  121  123 ar  
   129  121  130 1   
   130  122  124 ar  
   131  122  131 1   
   132  123  124 ar  
   133  123  132 1   
   134  124  133 1   
   135  134  135 1   
   136  134  140 1   
   137  135  136 1   
   138  135  138 1   
   139  135  141 1   
   140  136  137 2   
   141  136  148 1   
   142  138  139 1   
   143  138  142 1   
   144  138  143 1   
   145  139  140 1   
   146  139  144 1   
   147  139  145 1   
   148  140  146 1   
   149  140  147 1   
   150  148  149 1   
   151  148  157 1   
   152  149  150 1   
   153  149  152 1   
   154  149  158 1   
   155  150  151 2   
   156  150  163 1   
   157  152  153 1   
   158  152  159 1   
   159  152  160 1   
   160  153  154 1   
   161  153  161 1   
   162  153  162 1   
   163  154  155 1   
   164  154  156 1   
   165  163  164 1   
   166  163  168 1   
   167  164  165 1   
   168  164  166 1   
   169  164  167 1   
   170  170  171 1   
   171  170  172 1   
   172  173  174 1   
   173  173  175 1   
   174  176  177 1   
   175  176  178 1   
@<TRIPOS>SUBSTRUCTURE
     1 MOL         1 TEMP              0 ****  ****    0 ROOT
