@<TRIPOS>MOLECULE
MOL
  198   191     1     0     0
SMALL
resp


@<TRIPOS>ATOM
      1 C1         -2.8780    6.2960    1.6040 c3        1 MOL     -0.442410
      2 C2         -4.3480    6.1710    1.2820 c         1 MOL      0.628069
      3 O1         -4.7180    6.7130    0.2410 o         1 MOL     -0.550330
      4 H1         -2.6620    5.7600    2.5280 hc        1 MOL      0.114825
      5 H2         -2.2890    5.8700    0.7910 hc        1 MOL      0.114825
      6 H3         -2.6210    7.3480    1.7260 hc        1 MOL      0.114825
      7 N1         -5.1250    5.4540    2.0600 n         1 MOL     -0.503523
      8 C3         -6.5390    5.0900    1.7990 c3        1 MOL      0.218740
      9 C4         -6.7920    4.1720    0.5940 c         1 MOL      0.573959
     10 O2         -5.8390    3.8640   -0.1100 o         1 MOL     -0.546253
     11 C5         -7.3270    6.4420    1.7500 c3        1 MOL     -0.391033
     12 C6         -8.7720    6.2300    2.0380 c         1 MOL      0.805171
     13 O3         -9.6040    7.0390    1.6260 o         1 MOL     -0.725437
     14 O4         -9.1330    5.1730    2.5890 o         1 MOL     -0.725437
     15 H4         -4.6580    4.8440    2.7290 hn        1 MOL      0.278353
     16 H5         -6.8770    4.6310    2.7270 h1        1 MOL      0.021900
     17 H6         -7.1880    6.8150    0.7320 hc        1 MOL      0.095702
     18 H7         -6.9540    7.0990    2.5320 hc        1 MOL      0.095702
     19 N2         -8.0850    3.7470    0.4620 n         1 MOL     -0.591996
     20 C7         -8.7050    2.9100   -0.5740 c3        1 MOL      0.255725
     21 C8         -8.1900    1.4300   -0.7510 c         1 MOL      0.316372
     22 O5         -8.7900    0.7120   -1.5660 o         1 MOL     -0.538713
     23 C9         -8.6470    3.5970   -1.9820 c3        1 MOL     -0.008479
     24 C10        -9.0510    5.0900   -2.1420 c3        1 MOL     -0.207058
     25 C11        -8.7460    5.5080   -3.5600 c3        1 MOL      0.037836
     26 C12        -8.9680    7.0320   -3.8570 c3        1 MOL      0.137386
     27 N3         -8.4790    7.3510   -5.1540 n4        1 MOL     -0.377754
     28 H8         -8.6810    4.0990    1.2090 hn        1 MOL      0.285983
     29 H9         -9.7580    2.8080   -0.3370 h1        1 MOL      0.069590
     30 H10        -9.2250    3.0200   -2.6940 hc        1 MOL      0.025161
     31 H11        -7.5860    3.5330   -2.2610 hc        1 MOL      0.025161
     32 H12        -8.3380    5.6270   -1.5120 hc        1 MOL      0.091173
     33 H13       -10.0920    5.2050   -1.8340 hc        1 MOL      0.091173
     34 H14        -9.4140    4.9800   -4.2410 hc        1 MOL      0.009489
     35 H15        -7.7290    5.2240   -3.8220 hc        1 MOL      0.009489
     36 H16        -8.4030    7.6260   -3.1380 hx        1 MOL      0.056722
     37 H17       -10.0100    7.3550   -3.7770 hx        1 MOL      0.056722
     38 H18        -7.4650    7.2960   -5.1420 hn        1 MOL      0.325359
     39 H19        -8.8660    6.7980   -5.8980 hn        1 MOL      0.325359
     40 H20        -8.7840    8.2740   -5.4350 hn        1 MOL      0.325359
     41 N4         -7.2120    0.9700    0.0610 n         1 MOL     -0.356940
     42 C13        -6.5910   -0.3280   -0.1410 c3        1 MOL      0.456876
     43 C14        -6.7220   -1.2000    1.1160 c         1 MOL      0.413549
     44 O6         -6.7100   -0.6930    2.2040 o         1 MOL     -0.575366
     45 C15        -5.0840   -0.1390   -0.4580 c3        1 MOL     -0.342386
     46 C16        -4.3790   -1.2900   -1.1460 c         1 MOL      0.833221
     47 O7         -5.0120   -2.1860   -1.6510 o         1 MOL     -0.783787
     48 O8         -3.1930   -1.2050   -1.3630 o         1 MOL     -0.783787
     49 H21        -6.7680    1.4820    0.8100 hn        1 MOL      0.208807
     50 H22        -7.0330   -0.9230   -0.9430 h1        1 MOL     -0.006845
     51 H23        -4.7270    0.0240    0.5630 hc        1 MOL      0.080077
     52 H24        -4.7970    0.7010   -1.0980 hc        1 MOL      0.080077
     53 N5         -6.8180   -2.4960    1.1210 n         1 MOL     -0.277256
     54 C17        -7.3290   -3.3860    0.1000 c3        1 MOL     -0.205832
     55 C18        -6.6220   -4.6920    0.1440 c         1 MOL      0.468788
     56 O9         -7.1210   -5.6520    0.6960 o         1 MOL     -0.531049
     57 H25        -6.6480   -2.8810    2.0430 hn        1 MOL      0.278318
     58 H26        -7.2070   -2.9770   -0.9070 h1        1 MOL      0.120631
     59 H27        -8.3900   -3.5820    0.2760 h1        1 MOL      0.120631
     60 N6         -5.4150   -4.8070   -0.4820 n         1 MOL     -0.110911
     61 C19        -4.4660   -5.9500   -0.3790 c3        1 MOL      0.168237
     62 C20        -3.0380   -5.3830   -0.0820 c         1 MOL      0.181050
     63 O10        -2.6310   -4.3100   -0.4440 o         1 MOL     -0.431364
     64 C21        -4.5250   -6.9600   -1.4890 c3        1 MOL     -0.059495
     65 C22        -4.5280   -6.3140   -2.8550 c         1 MOL      0.536467
     66 O11        -4.1030   -5.1820   -3.0120 o         1 MOL     -0.668689
     67 O12        -5.0810   -6.9870   -3.8040 o         1 MOL     -0.668689
     68 H28        -5.0110   -3.9410   -0.7980 hn        1 MOL      0.088165
     69 H29        -4.8740   -6.5020    0.4700 h1        1 MOL     -0.039734
     70 H30        -5.4990   -7.4380   -1.4310 hc        1 MOL      0.026844
     71 H31        -3.7690   -7.7270   -1.3340 hc        1 MOL      0.026844
     72 N7         -2.2310   -6.2420    0.5750 n         1 MOL     -0.175576
     73 C23        -0.8190   -5.9520    0.8940 c3        1 MOL     -0.401809
     74 C24        -0.4610   -4.8600    1.8890 c         1 MOL      0.629768
     75 O13         0.6700   -4.8950    2.3660 o         1 MOL     -0.559238
     76 H32        -2.6080   -7.1430    0.8220 hn        1 MOL      0.267144
     77 H33        -0.5190   -5.5860   -0.0820 h1        1 MOL      0.154224
     78 H34        -0.3920   -6.8860    1.2530 h1        1 MOL      0.154224
     79 N8         -1.4060   -3.9960    2.2340 n         1 MOL     -0.259765
     80 C25        -1.2380   -2.8740    3.1910 c3        1 MOL     -0.044118
     81 C26        -0.7150   -1.6290    2.4740 c         1 MOL      0.579344
     82 O14        -0.9070   -1.4850    1.2640 o         1 MOL     -0.538251
     83 C27        -2.5350   -2.5450    3.9080 c3        1 MOL      0.390578
     84 C28        -3.7510   -2.2630    3.0680 c3        1 MOL     -0.290567
     85 O15        -2.8800   -3.6570    4.6640 oh        1 MOL     -0.625524
     86 H35        -2.2610   -3.9490    1.7100 hn        1 MOL      0.199411
     87 H36        -0.6220   -3.1930    4.0240 h1        1 MOL      0.088108
     88 H37        -2.3270   -1.7240    4.5790 h1        1 MOL     -0.048378
     89 H38        -3.6030   -3.2410    5.1550 ho        1 MOL      0.401597
     90 H39        -3.6300   -1.3380    2.5150 hc        1 MOL      0.070560
     91 H40        -3.7910   -3.0540    2.3090 hc        1 MOL      0.070560
     92 H41        -4.6990   -2.2680    3.6190 hc        1 MOL      0.070560
     93 N9         -0.1110   -0.6310    3.2390 n         1 MOL     -0.404433
     94 C29         0.4950    0.6490    2.7630 c3        1 MOL     -0.103015
     95 C30         1.8570    0.4920    2.0800 c         1 MOL      0.487890
     96 O16         2.4420    1.4690    1.5920 o         1 MOL     -0.534353
     97 C31         0.5190    1.6710    3.8770 c3        1 MOL      0.161615
     98 C32         1.4510    1.3720    5.0610 c3        1 MOL      0.140683
     99 C33        -0.9240    1.9350    4.3980 c3        1 MOL     -0.306304
    100 C34         1.5330    2.4770    6.1270 c3        1 MOL     -0.323302
    101 H42         0.0810   -0.7820    4.2090 hn        1 MOL      0.252545
    102 H43        -0.1400    1.0500    1.9680 h1        1 MOL      0.153731
    103 H44         0.8280    2.5840    3.3760 hc        1 MOL      0.016145
    104 H45         2.4440    1.2050    4.6470 hc        1 MOL     -0.019437
    105 H46         1.2280    0.3520    5.3950 hc        1 MOL     -0.019437
    106 H47        -1.1390    1.3330    5.2830 hc        1 MOL      0.069787
    107 H48        -1.0890    2.9410    4.7740 hc        1 MOL      0.069787
    108 H49        -1.6090    1.6080    3.6140 hc        1 MOL      0.069787
    109 H50         2.4350    2.3540    6.7220 hc        1 MOL      0.089865
    110 H51         1.5170    3.4710    5.6700 hc        1 MOL      0.089865
    111 H52         0.7020    2.4670    6.8360 hc        1 MOL      0.089865
    112 N10         2.4800   -0.7070    2.1260 n         1 MOL     -0.347142
    113 C35         3.6350   -1.0010    1.1770 c3        1 MOL      0.050132
    114 C36         4.8010   -1.8120    1.6810 c         1 MOL      0.521266
    115 O17         4.6130   -2.6500    2.5840 o         1 MOL     -0.524707
    116 C37         3.1680   -1.8130   -0.0490 c3        1 MOL      0.276992
    117 C38         2.4410   -3.1600    0.2640 c3        1 MOL     -0.376097
    118 O18         2.2930   -1.0480   -0.7190 oh        1 MOL     -0.643445
    119 H53         1.9990   -1.4780    2.5700 hn        1 MOL      0.196529
    120 H54         4.1370   -0.0660    0.9360 h1        1 MOL      0.071763
    121 H55         3.9750   -2.0280   -0.7490 h1        1 MOL      0.004320
    122 H56         2.7280   -0.2170   -0.9220 ho        1 MOL      0.416757
    123 H57         1.4490   -2.9380    0.6610 hc        1 MOL      0.112890
    124 H58         2.2750   -3.7180   -0.6580 hc        1 MOL      0.112890
    125 H59         3.0070   -3.8520    0.8740 hc        1 MOL      0.112890
    126 N11         6.0130   -1.5660    1.2410 n         1 MOL     -0.398560
    127 C39         7.2330   -2.2330    1.7590 c3        1 MOL     -0.075709
    128 C40         8.3100   -1.1860    1.5970 c         1 MOL      0.546946
    129 O19         9.0640   -0.9090    2.5540 o         1 MOL     -0.540587
    130 C41         7.4630   -3.4960    0.8740 c3        1 MOL      0.309062
    131 C42         8.7950   -4.2430    1.1640 c3        1 MOL     -0.330484
    132 O20         7.5660   -3.1820   -0.4820 oh        1 MOL     -0.609034
    133 H60         6.0670   -0.9870    0.4100 hn        1 MOL      0.187035
    134 H61         7.1260   -2.5210    2.8050 h1        1 MOL      0.137519
    135 H62         6.5660   -4.1030    0.9850 h1        1 MOL      0.027683
    136 H63         6.7280   -3.3230   -0.9240 ho        1 MOL      0.391639
    137 H64         9.5900   -3.5060    1.1410 hc        1 MOL      0.097566
    138 H65         8.7420   -4.6400    2.1870 hc        1 MOL      0.097566
    139 H66         8.9790   -5.0730    0.4720 hc        1 MOL      0.097566
    140 N12         8.4420   -0.6320    0.3730 n         1 MOL     -0.346320
    141 C43         9.4440    0.3840    0.0220 c3        1 MOL      0.031998
    142 C44         8.9050    1.3570   -0.9500 c         1 MOL      0.492592
    143 O21         8.1550    0.9410   -1.8240 o         1 MOL     -0.530620
    144 C45        10.6740   -0.2560   -0.6020 c3        1 MOL     -0.284048
    145 C46        11.9110    0.7900   -0.6330 c3        1 MOL      0.318904
    146 C47        13.2510    0.2380   -1.1090 c3        1 MOL     -0.079085
    147 C48        13.0990   -0.7960   -2.2480 c3        1 MOL      0.087327
    148 N13        14.4810   -1.1650   -2.6560 n4        1 MOL     -0.265002
    149 H67         7.8230   -1.0570   -0.3070 hn        1 MOL      0.251755
    150 H68         9.7450    0.8740    0.9580 h1        1 MOL      0.077127
    151 H69        10.4230   -0.4350   -1.6460 hc        1 MOL      0.094723
    152 H70        10.9180   -1.1440   -0.0210 hc        1 MOL      0.094723
    153 H71        12.0470    1.2260    0.3540 hc        1 MOL     -0.063277
    154 H72        11.6520    1.7080   -1.1720 hc        1 MOL     -0.063277
    155 H73        13.7020   -0.1900   -0.2080 hc        1 MOL      0.028860
    156 H74        13.7910    1.1090   -1.4700 hc        1 MOL      0.028860
    157 H75        12.5480   -0.3040   -3.0470 hx        1 MOL      0.055096
    158 H76        12.5050   -1.6050   -1.8370 hx        1 MOL      0.055096
    159 H77        14.4140   -1.5670   -3.5820 hn        1 MOL      0.265367
    160 H78        15.0470   -0.3420   -2.7830 hn        1 MOL      0.265367
    161 H79        15.0160   -1.6620   -1.9600 hn        1 MOL      0.265367
    162 N14         9.2180    2.6240   -0.8410 n         1 MOL     -0.526754
    163 C49         8.7640    3.7050   -1.8040 c3        1 MOL      0.522903
    164 C50         7.2140    3.6270   -2.1860 c         1 MOL      0.356060
    165 O22         6.8880    3.6680   -3.3840 o         1 MOL     -0.532516
    166 C51         9.1660    5.0370   -1.2690 c3        1 MOL     -0.295729
    167 C52        10.6710    5.2440   -1.4630 c3        1 MOL     -0.163926
    168 C53        11.1110    6.6490   -0.8930 c         1 MOL      0.673952
    169 O23        12.1560    6.6710   -0.2550 o         1 MOL     -0.661496
    170 O24        10.4460    7.6710   -1.2650 o         1 MOL     -0.661496
    171 H80         9.9740    2.8470   -0.2060 hn        1 MOL      0.303907
    172 H81         9.2370    3.5440   -2.7630 h1        1 MOL     -0.045525
    173 H82         8.9660    5.0870   -0.1940 hc        1 MOL      0.094490
    174 H83         8.5480    5.7640   -1.7880 hc        1 MOL      0.094490
    175 H84        10.9470    5.2160   -2.5240 hc        1 MOL      0.028113
    176 H85        11.2240    4.3860   -1.0940 hc        1 MOL      0.028113
    177 N15         6.2310    3.5270   -1.2720 n         1 MOL     -0.367983
    178 C54         6.3190    3.8570    0.1800 c3        1 MOL      0.013000
    179 H86         7.3570    3.7820    0.5070 h1        1 MOL      0.035190
    180 H87         5.9600    4.8730    0.3450 h1        1 MOL      0.035190
    181 H88         5.7080    3.1570    0.7500 h1        1 MOL      0.035190
    182 H89         5.2770    3.4220   -1.5870 hn        1 MOL      0.292406
    183 Ca1        -2.3190   -3.1630   -2.7670 Ca        1 MOL      1.809885
    184 O25        -0.2070   -2.6310   -1.1370 oh        1 MOL     -0.846971
    185 H90         0.7510   -2.5710   -1.1330 ho        1 MOL      0.420431
    186 H91        -0.4730   -2.2600   -0.2950 ho        1 MOL      0.420431
    187 O26        -0.7320   -5.3840   -2.7530 oh        1 MOL     -0.846971
    188 H92        -1.1510   -6.2170   -2.9700 ho        1 MOL      0.420431
    189 H93         0.2060   -5.5860   -2.7570 ho        1 MOL      0.420431
    190 O27        -1.0720   -1.1980   -4.1100 oh        1 MOL     -0.846971
    191 H94        -1.3190   -0.3150   -3.8320 ho        1 MOL      0.420431
    192 H95        -0.5010   -1.0670   -4.8630 ho        1 MOL      0.420431
    193 O28        -3.9890   -1.9030   -4.3530 oh        1 MOL     -0.846971
    194 H96        -4.0430   -1.0240   -4.7310 ho        1 MOL      0.420431
    195 H97        -4.8780   -2.0850   -4.0620 ho        1 MOL      0.420431
    196 O29        -1.8360   -3.8510   -5.4670 oh        1 MOL     -0.846971
    197 H98        -2.6660   -4.0300   -5.9160 ho        1 MOL      0.420431
    198 H99        -1.1760   -3.9430   -6.1480 ho        1 MOL      0.420431
@<TRIPOS>BOND
     1    1    2 1   
     2    1    4 1   
     3    1    5 1   
     4    1    6 1   
     5    2    3 2   
     6    2    7 1   
     7    7    8 1   
     8    7   15 1   
     9    8    9 1   
    10    8   11 1   
    11    8   16 1   
    12    9   10 2   
    13    9   19 1   
    14   11   12 1   
    15   11   17 1   
    16   11   18 1   
    17   12   13 1   
    18   12   14 1   
    19   19   20 1   
    20   19   28 1   
    21   20   21 1   
    22   20   23 1   
    23   20   29 1   
    24   21   22 2   
    25   21   41 1   
    26   23   24 1   
    27   23   30 1   
    28   23   31 1   
    29   24   25 1   
    30   24   32 1   
    31   24   33 1   
    32   25   26 1   
    33   25   34 1   
    34   25   35 1   
    35   26   27 1   
    36   26   36 1   
    37   26   37 1   
    38   27   38 1   
    39   27   39 1   
    40   27   40 1   
    41   41   42 1   
    42   41   49 1   
    43   42   43 1   
    44   42   45 1   
    45   42   50 1   
    46   43   44 2   
    47   43   53 1   
    48   45   46 1   
    49   45   51 1   
    50   45   52 1   
    51   46   47 1   
    52   46   48 1   
    53   53   54 1   
    54   53   57 1   
    55   54   55 1   
    56   54   58 1   
    57   54   59 1   
    58   55   56 2   
    59   55   60 1   
    60   60   61 1   
    61   60   68 1   
    62   61   62 1   
    63   61   64 1   
    64   61   69 1   
    65   62   63 2   
    66   62   72 1   
    67   64   65 1   
    68   64   70 1   
    69   64   71 1   
    70   65   66 1   
    71   65   67 1   
    72   72   73 1   
    73   72   76 1   
    74   73   74 1   
    75   73   77 1   
    76   73   78 1   
    77   74   75 2   
    78   74   79 1   
    79   79   80 1   
    80   79   86 1   
    81   80   81 1   
    82   80   83 1   
    83   80   87 1   
    84   81   82 2   
    85   81   93 1   
    86   83   84 1   
    87   83   85 1   
    88   83   88 1   
    89   84   90 1   
    90   84   91 1   
    91   84   92 1   
    92   85   89 1   
    93   93   94 1   
    94   93  101 1   
    95   94   95 1   
    96   94   97 1   
    97   94  102 1   
    98   95   96 2   
    99   95  112 1   
   100   97   98 1   
   101   97   99 1   
   102   97  103 1   
   103   98  100 1   
   104   98  104 1   
   105   98  105 1   
   106   99  106 1   
   107   99  107 1   
   108   99  108 1   
   109  100  109 1   
   110  100  110 1   
   111  100  111 1   
   112  112  113 1   
   113  112  119 1   
   114  113  114 1   
   115  113  116 1   
   116  113  120 1   
   117  114  115 2   
   118  114  126 1   
   119  116  117 1   
   120  116  118 1   
   121  116  121 1   
   122  117  123 1   
   123  117  124 1   
   124  117  125 1   
   125  118  122 1   
   126  126  127 1   
   127  126  133 1   
   128  127  128 1   
   129  127  130 1   
   130  127  134 1   
   131  128  129 2   
   132  128  140 1   
   133  130  131 1   
   134  130  132 1   
   135  130  135 1   
   136  131  137 1   
   137  131  138 1   
   138  131  139 1   
   139  132  136 1   
   140  140  141 1   
   141  140  149 1   
   142  141  142 1   
   143  141  144 1   
   144  141  150 1   
   145  142  143 2   
   146  142  162 1   
   147  144  145 1   
   148  144  151 1   
   149  144  152 1   
   150  145  146 1   
   151  145  153 1   
   152  145  154 1   
   153  146  147 1   
   154  146  155 1   
   155  146  156 1   
   156  147  148 1   
   157  147  157 1   
   158  147  158 1   
   159  148  159 1   
   160  148  160 1   
   161  148  161 1   
   162  162  163 1   
   163  162  171 1   
   164  163  164 1   
   165  163  166 1   
   166  163  172 1   
   167  164  165 2   
   168  164  177 1   
   169  166  167 1   
   170  166  173 1   
   171  166  174 1   
   172  167  168 1   
   173  167  175 1   
   174  167  176 1   
   175  168  169 1   
   176  168  170 1   
   177  177  178 1   
   178  177  182 1   
   179  178  179 1   
   180  178  180 1   
   181  178  181 1   
   182  184  185 1   
   183  184  186 1   
   184  187  188 1   
   185  187  189 1   
   186  190  191 1   
   187  190  192 1   
   188  193  194 1   
   189  193  195 1   
   190  196  197 1   
   191  196  198 1   
@<TRIPOS>SUBSTRUCTURE
     1 MOL         1 TEMP              0 ****  ****    0 ROOT
