@<TRIPOS>MOLECULE
MOL
  182   178     1     0     0
SMALL
resp


@<TRIPOS>ATOM
      1 C1          0.2710   -2.8550    6.8950 c3        1 MOL     -0.443224
      2 C2          0.4400   -2.8150    5.4060 c         1 MOL      0.846234
      3 O1         -0.5430   -2.8160    4.6720 o         1 MOL     -0.635330
      4 H1          0.4460   -1.8610    7.3060 hc        1 MOL      0.121718
      5 H2         -0.7420   -3.1750    7.1380 hc        1 MOL      0.121718
      6 H3          0.9870   -3.5560    7.3230 hc        1 MOL      0.121718
      7 N1          1.6910   -2.8010    4.9090 n         1 MOL     -0.692431
      8 C3          2.0790   -2.8360    3.4510 c3        1 MOL      0.112206
      9 C4          2.1440   -4.2440    2.8580 c         1 MOL      0.514178
     10 O2          2.4360   -5.3000    3.4660 o         1 MOL     -0.552963
     11 C5          3.3370   -1.9640    3.1430 c3        1 MOL     -0.011906
     12 C6          3.2840   -1.3680    1.7230 c         1 MOL      0.402615
     13 O3          4.0320   -0.3410    1.4060 o         1 MOL     -0.659352
     14 O4          2.6910   -1.9500    0.8200 o         1 MOL     -0.659352
     15 H4          2.4430   -2.7480    5.5870 hn        1 MOL      0.332300
     16 H5          1.2330   -2.4480    2.8820 h1        1 MOL     -0.004085
     17 H6          4.2570   -2.5030    3.3620 hc        1 MOL      0.064464
     18 H7          3.2400   -1.1280    3.8380 hc        1 MOL      0.064464
     19 N2          1.8850   -4.3380    1.5570 n         1 MOL     -0.320724
     20 C7          1.8810   -5.6660    0.8180 c3        1 MOL      0.014551
     21 C8          3.0790   -5.7970   -0.1290 c         1 MOL      0.514509
     22 O5          3.4040   -6.9270   -0.4650 o         1 MOL     -0.540692
     23 C9          0.5070   -5.9460    0.2480 c3        1 MOL     -0.075374
     24 C10         0.0690   -4.8580   -0.7300 c3        1 MOL      0.153154
     25 C11        -1.2260   -5.2260   -1.4480 c3        1 MOL     -0.129854
     26 C12        -1.8430   -3.9700   -2.0680 c3        1 MOL      0.257785
     27 N3         -2.9960   -4.2470   -2.9080 n4        1 MOL     -0.543100
     28 H8          1.4450   -3.5320    1.1430 hn        1 MOL      0.240320
     29 H9          2.1320   -6.4520    1.5370 h1        1 MOL      0.110685
     30 H10        -0.2300   -6.0200    1.0520 hc        1 MOL      0.020259
     31 H11         0.5140   -6.8800   -0.3240 hc        1 MOL      0.020259
     32 H12         0.8930   -4.8370   -1.4340 hc        1 MOL      0.005723
     33 H13        -0.0470   -3.9480   -0.1310 hc        1 MOL      0.005723
     34 H14        -1.9040   -5.7220   -0.7560 hc        1 MOL      0.034854
     35 H15        -1.0180   -5.9070   -2.2770 hc        1 MOL      0.034854
     36 H16        -1.0590   -3.5600   -2.7040 hx        1 MOL      0.006615
     37 H17        -1.9250   -3.2680   -1.2350 hx        1 MOL      0.006615
     38 H18        -2.8210   -4.8940   -3.6610 hn        1 MOL      0.352458
     39 H19        -3.7160   -4.4760   -2.2370 hn        1 MOL      0.352458
     40 H20        -3.3010   -3.4240   -3.4290 hn        1 MOL      0.352458
     41 N4          3.6130   -4.6420   -0.5990 n         1 MOL     -0.395693
     42 C13         4.7100   -4.6030   -1.5260 c3        1 MOL      0.204299
     43 C14         5.8990   -3.8910   -0.9240 c         1 MOL      0.345579
     44 O6          6.9320   -4.1640   -1.4320 o         1 MOL     -0.480955
     45 C15         4.1340   -3.9240   -2.7680 c3        1 MOL     -0.257950
     46 C16         3.2720   -2.6200   -2.5360 c         1 MOL      0.726101
     47 O7          2.1270   -2.5950   -2.9770 o         1 MOL     -0.738602
     48 O8          3.6910   -1.6980   -1.7870 o         1 MOL     -0.738602
     49 H21         3.2370   -3.7810   -0.2300 hn        1 MOL      0.245678
     50 H22         5.0520   -5.5950   -1.8280 h1        1 MOL      0.077604
     51 H23         3.4750   -4.6220   -3.2810 hc        1 MOL      0.056247
     52 H24         4.9470   -3.6330   -3.4420 hc        1 MOL      0.056247
     53 N5          5.7020   -3.0540    0.1190 n         1 MOL     -0.127315
     54 C17         6.6750   -2.2240    0.7930 c3        1 MOL     -0.255012
     55 C18         6.9550   -0.9930   -0.0850 c         1 MOL      0.494869
     56 O9          7.9570   -0.3070    0.2600 o         1 MOL     -0.572579
     57 H25         4.7260   -2.9270    0.3680 hn        1 MOL      0.042813
     58 H26         7.6300   -2.7500    0.8360 h1        1 MOL      0.150586
     59 H27         6.3060   -1.9460    1.7750 h1        1 MOL      0.150586
     60 N6          6.1900   -0.6070   -1.0620 n         1 MOL     -0.080076
     61 C19         6.5390    0.5070   -1.9090 c3        1 MOL     -0.004872
     62 C20         5.6970    1.7580   -1.5960 c         1 MOL      0.643132
     63 O10         4.5670    1.5190   -1.1700 o         1 MOL     -0.608911
     64 C21         6.4130    0.0920   -3.3640 c3        1 MOL     -0.241377
     65 C22         7.3170   -1.0800   -3.7440 c         1 MOL      0.600346
     66 N7          6.8260   -1.9980   -4.5640 n         1 MOL     -0.779016
     67 O11         8.4420   -1.2200   -3.2910 o         1 MOL     -0.487640
     68 H28         5.3500   -1.1450   -1.2560 hn        1 MOL      0.268587
     69 H29         7.5680    0.8310   -1.7070 h1        1 MOL      0.040395
     70 H30         6.5970    0.8980   -4.0650 hc        1 MOL      0.045080
     71 H31         5.3760   -0.2060   -3.5800 hc        1 MOL      0.045080
     72 H32         5.8910   -1.9180   -4.9380 hn        1 MOL      0.369990
     73 H33         7.4770   -2.6780   -4.9330 hn        1 MOL      0.369990
     74 N8          6.0650    2.9720   -2.0240 n         1 MOL     -0.514344
     75 C23         5.1100    4.0310   -2.0480 c3        1 MOL     -0.100660
     76 C24         4.5770    4.4460   -0.6920 c         1 MOL      0.696399
     77 O12         5.2610    4.4160    0.3500 o         1 MOL     -0.510501
     78 H34         6.7620    2.9680   -2.7500 hn        1 MOL      0.359105
     79 H35         4.2570    3.6920   -2.6270 h1        1 MOL      0.080418
     80 H36         5.5450    4.8750   -2.5990 h1        1 MOL      0.080418
     81 N9          3.3580    4.8870   -0.6410 n         1 MOL     -0.722793
     82 C25         2.4840    4.9990    0.5570 c3        1 MOL      0.490399
     83 C26         1.9250    3.6470    1.0870 c         1 MOL      0.487081
     84 O13         2.3360    2.5510    0.6510 o         1 MOL     -0.534608
     85 C27         1.2580    5.9130    0.2090 c3        1 MOL     -0.391245
     86 C28         1.6960    7.3230   -0.1560 ca        1 MOL      0.365816
     87 C29         1.1110    7.9820   -1.2930 ca        1 MOL     -0.419918
     88 C30         2.6020    7.9760    0.6660 ca        1 MOL     -0.419918
     89 C31         1.4860    9.3510   -1.4660 ca        1 MOL     -0.056446
     90 C32         2.9870    9.3110    0.4180 ca        1 MOL     -0.056446
     91 C33         2.3920   10.0220   -0.6670 ca        1 MOL      0.152506
     92 O14         2.6210   11.3380   -0.8270 oh        1 MOL     -0.419956
     93 H37         2.8860    5.0510   -1.5200 hn        1 MOL      0.305587
     94 H38         3.0730    5.4530    1.3430 h1        1 MOL      0.028867
     95 H39         0.5460    6.0300    1.0360 hc        1 MOL      0.090846
     96 H40         0.7610    5.5240   -0.6830 hc        1 MOL      0.090846
     97 H41         0.3420    7.4870   -1.8730 ha        1 MOL      0.193152
     98 H42         3.0520    7.5030    1.5240 ha        1 MOL      0.193152
     99 H43         0.9700    9.8380   -2.2740 ha        1 MOL      0.123527
    100 H44         3.7880    9.7400    1.0010 ha        1 MOL      0.123527
    101 H45         2.1800   11.7210   -1.5860 ho        1 MOL      0.350367
    102 N10         1.0000    3.6140    2.0700 n         1 MOL     -0.783553
    103 C34         0.4400    2.4380    2.8200 c3        1 MOL      0.445773
    104 C35        -0.0010    1.2380    1.9730 c         1 MOL      0.408143
    105 O15         0.8390    0.5280    1.3710 o         1 MOL     -0.493273
    106 C36         1.4340    1.9590    3.9950 c3        1 MOL      0.154243
    107 C37         0.7400    0.9200    4.9150 c3        1 MOL      0.002228
    108 C38         1.9290    3.1780    4.7450 c3        1 MOL     -0.497736
    109 C39        -0.3350    1.3790    5.9170 c3        1 MOL     -0.114560
    110 H46         0.6240    4.4910    2.4060 hn        1 MOL      0.326856
    111 H47        -0.4400    2.8730    3.2930 h1        1 MOL     -0.004721
    112 H48         2.2360    1.4240    3.5020 hc        1 MOL      0.051897
    113 H49         1.4720    0.4650    5.5800 hc        1 MOL      0.003632
    114 H50         0.3470    0.1080    4.3170 hc        1 MOL      0.003632
    115 H51         2.6750    3.6170    4.0840 hc        1 MOL      0.133601
    116 H52         1.1110    3.8500    4.9970 hc        1 MOL      0.133601
    117 H53         2.4680    2.9100    5.6530 hc        1 MOL      0.133601
    118 H54        -0.4680    0.5400    6.6030 hc        1 MOL      0.027216
    119 H55        -0.1010    2.3210    6.4110 hc        1 MOL      0.027216
    120 H56        -1.2710    1.4720    5.3770 hc        1 MOL      0.027216
    121 N11        -1.2810    0.8610    2.0520 n         1 MOL     -0.520483
    122 C40        -1.9260   -0.2280    1.2280 c3        1 MOL      0.097524
    123 C41        -3.4230   -0.0530    1.0310 c         1 MOL      0.464672
    124 O16        -4.1390    0.5090    1.8930 o         1 MOL     -0.488516
    125 C42        -1.5920   -1.4990    1.9390 c3        1 MOL      0.301118
    126 O17        -2.1440   -2.6450    1.2670 oh        1 MOL     -0.665565
    127 H57        -1.8160    1.4240    2.6970 hn        1 MOL      0.274458
    128 H58        -1.4730   -0.2960    0.2440 h1        1 MOL      0.043454
    129 H59        -1.8540   -1.5510    2.9940 h1        1 MOL      0.032210
    130 H60        -0.4980   -1.5570    1.8460 h1        1 MOL      0.032210
    131 H61        -2.0340   -3.3720    1.8750 ho        1 MOL      0.426229
    132 N12        -3.9120   -0.5120   -0.1230 n         1 MOL     -0.363571
    133 C43        -5.2400   -0.3670   -0.7260 c3        1 MOL      0.015840
    134 C44        -5.4320   -1.5070   -1.7730 c         1 MOL      0.729993
    135 O18        -4.4400   -2.0140   -2.2750 o         1 MOL     -0.679663
    136 C45        -5.3740    1.0220   -1.3820 c3        1 MOL      0.061831
    137 H62        -3.2120   -1.0110   -0.6720 hn        1 MOL      0.184078
    138 H63        -6.0280   -0.3190    0.0140 h1        1 MOL      0.095172
    139 H64        -6.3860    1.1690   -1.7670 hc        1 MOL     -0.016991
    140 H65        -5.1630    1.8490   -0.7120 hc        1 MOL     -0.016991
    141 H66        -4.6390    1.1350   -2.1730 hc        1 MOL     -0.016991
    142 N13        -6.5590   -2.0490   -2.0020 n         1 MOL     -0.574886
    143 C46        -7.9060   -1.7120   -1.5610 c3        1 MOL      0.324775
    144 C47        -8.5450   -0.4960   -2.3160 c         1 MOL      0.531268
    145 O19        -8.2780   -0.3520   -3.4810 o         1 MOL     -0.581190
    146 C48        -8.8680   -2.9270   -1.4470 c3        1 MOL     -0.487174
    147 H67        -6.5270   -2.5970   -2.8530 hn        1 MOL      0.303463
    148 H68        -7.8010   -1.3610   -0.5310 h1        1 MOL     -0.005231
    149 H69        -8.4500   -3.4790   -0.6040 hc        1 MOL      0.145463
    150 H70        -9.9170   -2.6460   -1.3480 hc        1 MOL      0.145463
    151 H71        -8.8110   -3.5760   -2.3200 hc        1 MOL      0.145463
    152 N14        -9.1940    0.4770   -1.6670 n         1 MOL     -0.408449
    153 C49        -9.8030    0.5100   -0.3270 c3        1 MOL     -0.013512
    154 C50        -9.1040    1.6190    0.5230 c         1 MOL      0.408467
    155 O20        -8.8530    1.4370    1.7150 o         1 MOL     -0.511497
    156 C51       -11.3230    0.8200   -0.4480 c3        1 MOL      0.225012
    157 C52       -12.1570   -0.4390   -0.7560 c3        1 MOL     -0.158491
    158 C53       -13.6840   -0.1170   -0.8390 c         1 MOL      0.667018
    159 O21       -14.3980   -0.6880   -1.7430 o         1 MOL     -0.681172
    160 O22       -14.2060    0.7130   -0.0640 o         1 MOL     -0.681172
    161 H72        -9.4140    1.2520   -2.2930 hn        1 MOL      0.291829
    162 H73        -9.6130   -0.4390    0.1710 h1        1 MOL      0.069846
    163 H74       -11.5390    1.4630   -1.3030 hc        1 MOL     -0.040930
    164 H75       -11.7650    1.2400    0.4470 hc        1 MOL     -0.040930
    165 H76       -11.9480   -1.1890    0.0180 hc        1 MOL     -0.002575
    166 H77       -11.8660   -0.8330   -1.7250 hc        1 MOL     -0.002575
    167 N15        -8.7990    2.7610   -0.0320 n         1 MOL     -0.266423
    168 C54        -8.2770    3.9190    0.6690 c3        1 MOL     -0.153403
    169 H78        -7.8350    3.6020    1.6130 h1        1 MOL      0.097532
    170 H79        -7.5160    4.4030    0.0560 h1        1 MOL      0.097532
    171 H80        -9.0870    4.6220    0.8640 h1        1 MOL      0.097532
    172 H81        -9.1080    2.8380   -0.9890 hn        1 MOL      0.210735
    173 Ca1         2.3840    0.2980   -0.7200 Ca        1 MOL      1.738663
    174 O23         0.2770   -0.9830   -1.4870 oh        1 MOL     -0.796713
    175 H82        -0.4330   -0.7870   -2.0920 ho        1 MOL      0.396394
    176 H83         0.6520   -1.7990   -1.8140 ho        1 MOL      0.396394
    177 O24         0.7300    2.2620   -2.2630 oh        1 MOL     -0.796713
    178 H84         0.5100    2.7430   -3.0660 ho        1 MOL      0.396394
    179 H85        -0.0640    2.3080   -1.7260 ho        1 MOL      0.396394
    180 O25         2.7860    0.6500   -3.3450 oh        1 MOL     -0.796713
    181 H86         2.1200    0.3140   -3.9480 ho        1 MOL      0.396394
    182 H87         3.5120    0.9060   -3.9190 ho        1 MOL      0.396394
@<TRIPOS>BOND
     1    1    2 1   
     2    1    4 1   
     3    1    5 1   
     4    1    6 1   
     5    2    3 2   
     6    2    7 1   
     7    7    8 1   
     8    7   15 1   
     9    8    9 1   
    10    8   11 1   
    11    8   16 1   
    12    9   10 2   
    13    9   19 1   
    14   11   12 1   
    15   11   17 1   
    16   11   18 1   
    17   12   13 1   
    18   12   14 1   
    19   19   20 1   
    20   19   28 1   
    21   20   21 1   
    22   20   23 1   
    23   20   29 1   
    24   21   22 2   
    25   21   41 1   
    26   23   24 1   
    27   23   30 1   
    28   23   31 1   
    29   24   25 1   
    30   24   32 1   
    31   24   33 1   
    32   25   26 1   
    33   25   34 1   
    34   25   35 1   
    35   26   27 1   
    36   26   36 1   
    37   26   37 1   
    38   27   38 1   
    39   27   39 1   
    40   27   40 1   
    41   41   42 1   
    42   41   49 1   
    43   42   43 1   
    44   42   45 1   
    45   42   50 1   
    46   43   44 2   
    47   43   53 1   
    48   45   46 1   
    49   45   51 1   
    50   45   52 1   
    51   46   47 1   
    52   46   48 1   
    53   53   54 1   
    54   53   57 1   
    55   54   55 1   
    56   54   58 1   
    57   54   59 1   
    58   55   56 2   
    59   55   60 1   
    60   60   61 1   
    61   60   68 1   
    62   61   62 1   
    63   61   64 1   
    64   61   69 1   
    65   62   63 2   
    66   62   74 1   
    67   64   65 1   
    68   64   70 1   
    69   64   71 1   
    70   65   66 1   
    71   65   67 2   
    72   66   72 1   
    73   66   73 1   
    74   74   75 1   
    75   74   78 1   
    76   75   76 1   
    77   75   79 1   
    78   75   80 1   
    79   76   77 2   
    80   76   81 1   
    81   81   82 1   
    82   81   93 1   
    83   82   83 1   
    84   82   85 1   
    85   82   94 1   
    86   83   84 2   
    87   83  102 1   
    88   85   86 1   
    89   85   95 1   
    90   85   96 1   
    91   86   87 ar  
    92   86   88 ar  
    93   87   89 ar  
    94   87   97 1   
    95   88   90 ar  
    96   88   98 1   
    97   89   91 ar  
    98   89   99 1   
    99   90   91 ar  
   100   90  100 1   
   101   91   92 1   
   102   92  101 1   
   103  102  103 1   
   104  102  110 1   
   105  103  104 1   
   106  103  106 1   
   107  103  111 1   
   108  104  105 2   
   109  104  121 1   
   110  106  107 1   
   111  106  108 1   
   112  106  112 1   
   113  107  109 1   
   114  107  113 1   
   115  107  114 1   
   116  108  115 1   
   117  108  116 1   
   118  108  117 1   
   119  109  118 1   
   120  109  119 1   
   121  109  120 1   
   122  121  122 1   
   123  121  127 1   
   124  122  123 1   
   125  122  125 1   
   126  122  128 1   
   127  123  124 2   
   128  123  132 1   
   129  125  126 1   
   130  125  129 1   
   131  125  130 1   
   132  126  131 1   
   133  132  133 1   
   134  132  137 1   
   135  133  134 1   
   136  133  136 1   
   137  133  138 1   
   138  134  135 2   
   139  134  142 1   
   140  136  139 1   
   141  136  140 1   
   142  136  141 1   
   143  142  143 1   
   144  142  147 1   
   145  143  144 1   
   146  143  146 1   
   147  143  148 1   
   148  144  145 2   
   149  144  152 1   
   150  146  149 1   
   151  146  150 1   
   152  146  151 1   
   153  152  153 1   
   154  152  161 1   
   155  153  154 1   
   156  153  156 1   
   157  153  162 1   
   158  154  155 2   
   159  154  167 1   
   160  156  157 1   
   161  156  163 1   
   162  156  164 1   
   163  157  158 1   
   164  157  165 1   
   165  157  166 1   
   166  158  159 1   
   167  158  160 1   
   168  167  168 1   
   169  167  172 1   
   170  168  169 1   
   171  168  170 1   
   172  168  171 1   
   173  174  175 1   
   174  174  176 1   
   175  177  178 1   
   176  177  179 1   
   177  180  181 1   
   178  180  182 1   
@<TRIPOS>SUBSTRUCTURE
     1 MOL         1 TEMP              0 ****  ****    0 ROOT
