@<TRIPOS>MOLECULE
MOL
  178   175     1     0     0
SMALL
resp


@<TRIPOS>ATOM
      1 C1          2.9820   -2.2930    4.2990 c3        1 MOL     -0.244626
      2 C2          4.0050   -1.2930    3.5670 c         1 MOL      0.607589
      3 O1          3.8560   -1.1690    2.3620 o         1 MOL     -0.531757
      4 H1          2.7150   -1.8890    5.2750 hc        1 MOL      0.057682
      5 H2          2.0820   -2.4020    3.6930 hc        1 MOL      0.057682
      6 H3          3.4540   -3.2680    4.4270 hc        1 MOL      0.057682
      7 N1          4.9510   -0.7070    4.2270 n         1 MOL     -0.560068
      8 C3          5.8470    0.3190    3.7270 c3        1 MOL      0.241590
      9 C4          6.8570   -0.2280    2.6990 c         1 MOL      0.552168
     10 O2          7.1530    0.5330    1.7620 o         1 MOL     -0.438864
     11 C5          6.5700    1.0320    4.8510 c3        1 MOL     -0.261611
     12 C6          7.5260    2.1110    4.3140 c         1 MOL      0.729783
     13 O3          7.0910    3.0760    3.6830 o         1 MOL     -0.725164
     14 O4          8.7470    1.9220    4.5750 o         1 MOL     -0.725164
     15 H4          4.9830   -1.0960    5.1640 hn        1 MOL      0.276319
     16 H5          5.2410    1.0670    3.2070 h1        1 MOL      0.053360
     17 H6          7.0470    0.3530    5.5610 hc        1 MOL      0.011236
     18 H7          5.8290    1.5840    5.4290 hc        1 MOL      0.011236
     19 N2          7.3030   -1.4330    2.8580 n         1 MOL     -0.492742
     20 C7          8.1410   -2.1540    1.8170 c3        1 MOL      0.267199
     21 C8          7.4670   -2.1580    0.4080 c         1 MOL      0.374642
     22 O5          8.0430   -1.9210   -0.6870 o         1 MOL     -0.502450
     23 C9          9.6510   -1.6490    1.7820 c3        1 MOL     -0.398193
     24 H8          7.1330   -1.9510    3.7140 hn        1 MOL      0.272271
     25 H9          8.1780   -3.2120    2.1010 h1        1 MOL      0.016347
     26 H10         9.6330   -0.6950    1.2530 hc        1 MOL      0.109156
     27 H11         9.9990   -1.5020    2.8040 hc        1 MOL      0.109156
     28 H12        10.2160   -2.3980    1.2330 hc        1 MOL      0.109156
     29 N3          6.1450   -2.3770    0.3660 n         1 MOL     -0.464186
     30 C10         5.2100   -2.4010   -0.7580 c3        1 MOL      0.446168
     31 C11         5.2200   -1.1440   -1.6470 c         1 MOL      0.161757
     32 O6          4.9690   -1.1820   -2.8310 o         1 MOL     -0.441935
     33 C12         5.5300   -3.6590   -1.5120 c3        1 MOL     -0.190252
     34 C13         4.3660   -4.1970   -2.3830 c         1 MOL      0.827081
     35 O7          4.6700   -4.8750   -3.4200 o         1 MOL     -0.790482
     36 O8          3.1890   -4.0360   -2.1390 o         1 MOL     -0.790482
     37 H13         5.7600   -2.2190    1.2850 hn        1 MOL      0.189785
     38 H14         4.2040   -2.5440   -0.3720 h1        1 MOL     -0.003100
     39 H15         5.7740   -4.4570   -0.8160 hc        1 MOL      0.028785
     40 H16         6.3560   -3.4530   -2.1990 hc        1 MOL      0.028785
     41 N4          5.5770    0.0590   -1.0830 n         1 MOL      0.214872
     42 C14         5.8450    1.2920   -1.8330 c3        1 MOL     -0.190622
     43 C15         4.6800    1.9030   -2.6630 c         1 MOL      0.520620
     44 O9          4.8920    2.4300   -3.7840 o         1 MOL     -0.587505
     45 H17         5.7740    0.0190   -0.0980 hn        1 MOL     -0.061414
     46 H18         6.7940    1.0600   -2.3100 h1        1 MOL      0.093741
     47 H19         6.1090    2.0720   -1.1230 h1        1 MOL      0.093741
     48 N5          3.4420    1.7760   -2.2260 n         1 MOL     -0.220098
     49 C16         2.2690    2.3990   -2.8480 c3        1 MOL      0.051305
     50 C17         2.0840    3.8870   -2.3320 c         1 MOL      0.412743
     51 O10         2.5460    4.2490   -1.2120 o         1 MOL     -0.496637
     52 C18         1.0880    1.4550   -2.7400 c3        1 MOL     -0.299381
     53 C19         1.2340    0.1380   -3.4420 c         1 MOL      0.885776
     54 N6          0.7220    0.1080   -4.6190 n         1 MOL     -0.804516
     55 O11         1.8400   -0.8190   -2.9930 o         1 MOL     -0.673125
     56 H20         3.4050    1.1970   -1.3970 hn        1 MOL      0.150593
     57 H21         2.4290    2.5080   -3.9160 h1        1 MOL      0.023167
     58 H22         0.2010    1.9170   -3.1620 hc        1 MOL      0.097051
     59 H23         0.8660    1.2850   -1.6970 hc        1 MOL      0.097051
     60 H24         0.3470    0.9620   -5.0210 hn        1 MOL      0.348099
     61 H25         0.7890   -0.7220   -5.1950 hn        1 MOL      0.348099
     62 N7          1.4610    4.7300   -3.1500 n         1 MOL     -0.252200
     63 C20         1.1230    6.1200   -2.9120 c3        1 MOL     -0.294401
     64 C21        -0.3630    6.3360   -2.6640 c         1 MOL      0.522371
     65 O12        -1.2320    5.6260   -3.2220 o         1 MOL     -0.473480
     66 H26         1.1970    4.4300   -4.0810 hn        1 MOL      0.261882
     67 H27         1.3760    6.5730   -3.8750 h1        1 MOL      0.145977
     68 H28         1.7520    6.5450   -2.1310 h1        1 MOL      0.145977
     69 N8         -0.6880    7.2510   -1.6960 n         1 MOL     -0.500276
     70 C22        -2.0080    7.4310   -1.1230 c3        1 MOL      0.006884
     71 C23        -2.5180    6.0590   -0.6290 c         1 MOL      0.480677
     72 O13        -3.5350    5.6240   -1.0980 o         1 MOL     -0.530523
     73 C24        -2.0430    8.4710   -0.0320 c3        1 MOL      0.325378
     74 C25        -3.2860    8.6830    0.7270 c3        1 MOL     -0.333752
     75 O14        -0.9640    8.3060    0.8440 oh        1 MOL     -0.627744
     76 H29         0.0470    7.7710   -1.2410 hn        1 MOL      0.286815
     77 H30        -2.7080    7.7310   -1.8960 h1        1 MOL      0.091336
     78 H31        -1.7720    9.4150   -0.5010 h1        1 MOL     -0.011378
     79 H32        -0.9420    9.0700    1.4250 ho        1 MOL      0.411353
     80 H33        -4.0040    9.0290   -0.0140 hc        1 MOL      0.085615
     81 H34        -3.5900    7.6990    1.0930 hc        1 MOL      0.085615
     82 H35        -3.1140    9.3340    1.5880 hc        1 MOL      0.085615
     83 N9         -1.8470    5.4600    0.3710 n         1 MOL     -0.137758
     84 C26        -2.0090    4.1370    1.0310 c3        1 MOL     -0.234569
     85 C27        -1.8920    2.9410    0.1040 c         1 MOL      0.536492
     86 O15        -1.3890    3.0700   -1.0410 o         1 MOL     -0.445771
     87 C28        -1.1430    3.9020    2.3170 c3        1 MOL      0.023459
     88 C29         0.3390    3.8770    1.9570 c3        1 MOL     -0.383960
     89 C30        -1.3540    4.9890    3.4150 c3        1 MOL     -0.313295
     90 C31         1.3110    3.8060    3.1500 c3        1 MOL     -0.093832
     91 H36        -1.0240    5.9930    0.5800 hn        1 MOL      0.210440
     92 H37        -3.0450    4.1640    1.3530 h1        1 MOL      0.096366
     93 H38        -1.3880    2.9160    2.7010 hc        1 MOL      0.101675
     94 H39         0.7230    4.6830    1.3160 hc        1 MOL      0.205902
     95 H40         0.4630    2.9820    1.3510 hc        1 MOL      0.205902
     96 H41        -2.4230    5.1250    3.5750 hc        1 MOL      0.084081
     97 H42        -0.9180    4.7440    4.3870 hc        1 MOL      0.084081
     98 H43        -1.1060    5.9860    3.0610 hc        1 MOL      0.084081
     99 H44         1.1150    3.1120    3.9690 hc        1 MOL      0.053380
    100 H45         2.3120    3.6740    2.7590 hc        1 MOL      0.053380
    101 H46         1.4310    4.7640    3.6470 hc        1 MOL      0.053380
    102 N10        -2.2550    1.7260    0.4850 n         1 MOL     -0.532647
    103 C32        -2.2360    0.4520   -0.2830 c3        1 MOL      0.124112
    104 C33        -3.5920   -0.2420   -0.3230 c         1 MOL      0.507838
    105 O16        -3.6530   -1.4510   -0.4300 o         1 MOL     -0.473975
    106 C34        -1.1140   -0.3790    0.3310 c3        1 MOL      0.028037
    107 C35        -0.4750   -1.3890   -0.6400 c         1 MOL      0.537030
    108 O17         0.4810   -2.0990   -0.3650 o         1 MOL     -0.716384
    109 O18        -0.8550   -1.4800   -1.8020 o         1 MOL     -0.716384
    110 H47        -2.6100    1.5560    1.4250 hn        1 MOL      0.238467
    111 H48        -1.9290    0.7450   -1.2900 h1        1 MOL      0.024098
    112 H49        -1.4780   -0.8570    1.2480 hc        1 MOL      0.020495
    113 H50        -0.3190    0.2580    0.7050 hc        1 MOL      0.020495
    114 N11        -4.6410    0.5100   -0.0670 n         1 MOL     -0.432515
    115 C36        -6.0240    0.0250    0.0720 c3        1 MOL      0.113342
    116 C37        -6.0950   -1.1450    0.9190 c         1 MOL      0.443042
    117 O19        -6.0010   -1.0250    2.1540 o         1 MOL     -0.549532
    118 C38        -7.0210    1.1600    0.4500 c3        1 MOL     -0.331512
    119 C39        -8.4570    0.6820    0.4270 ca        1 MOL      0.244452
    120 C40        -9.1840    0.6880   -0.8270 ca        1 MOL     -0.316057
    121 C41        -9.0530    0.0580    1.5670 ca        1 MOL     -0.316057
    122 C42       -10.4410    0.0900   -0.8640 ca        1 MOL      0.023441
    123 C43       -10.4580   -0.2840    1.5500 ca        1 MOL      0.023441
    124 C44       -11.1030   -0.3450    0.2710 ca        1 MOL     -0.251931
    125 H51        -4.4680    1.4980   -0.2090 hn        1 MOL      0.301591
    126 H52        -6.2370   -0.2140   -0.9660 h1        1 MOL      0.023445
    127 H53        -6.7890    1.9590   -0.2490 hc        1 MOL      0.120188
    128 H54        -6.7110    1.5160    1.4290 hc        1 MOL      0.120188
    129 H55        -8.7020    1.1100   -1.6960 ha        1 MOL      0.170469
    130 H56        -8.5030   -0.0110    2.4950 ha        1 MOL      0.170469
    131 H57       -10.9230    0.0870   -1.8340 ha        1 MOL      0.085031
    132 H58       -10.9040   -0.6110    2.4770 ha        1 MOL      0.085031
    133 H59       -12.1100   -0.7440    0.2500 ha        1 MOL      0.127150
    134 N12        -6.3160   -2.3990    0.3990 n         1 MOL      0.071525
    135 C45        -6.6680   -3.6200    1.2190 c3        1 MOL      0.012038
    136 C46        -5.4930   -4.1840    2.0230 c         1 MOL      0.284276
    137 O20        -5.7200   -4.6840    3.1160 o         1 MOL     -0.499993
    138 C47        -7.0900   -4.6470    0.2290 c3        1 MOL     -0.178024
    139 C48        -6.3850   -4.3200   -1.1050 c3        1 MOL      0.120980
    140 C49        -6.4710   -2.7590   -0.9740 c3        1 MOL     -0.373039
    141 H60        -7.4310   -3.3740    1.9510 h1        1 MOL      0.082375
    142 H61        -7.1230   -5.7070    0.4870 hc        1 MOL      0.063706
    143 H62        -8.1000   -4.4380   -0.1210 hc        1 MOL      0.063706
    144 H63        -5.3400   -4.6370   -1.0340 hc        1 MOL      0.002521
    145 H64        -6.8660   -4.6920   -2.0040 hc        1 MOL      0.002521
    146 H65        -5.6700   -2.3730   -1.6040 h1        1 MOL      0.115416
    147 H66        -7.4800   -2.4880   -1.2760 h1        1 MOL      0.115416
    148 N13        -4.2040   -3.9670    1.6110 n         1 MOL     -0.059588
    149 C50        -3.0040   -4.3310    2.3470 c3        1 MOL     -0.156979
    150 C51        -2.7890   -3.3140    3.4560 c         1 MOL      0.380285
    151 O21        -2.3270   -3.6060    4.6000 o         1 MOL     -0.540649
    152 C52        -1.7370   -4.4490    1.4650 c3        1 MOL      0.021116
    153 C53        -1.8180   -5.4970    0.4200 c3        1 MOL     -0.223950
    154 C54        -0.8810   -5.1500   -0.6890 c         1 MOL      0.629825
    155 O22        -1.3030   -4.6150   -1.7310 o         1 MOL     -0.696614
    156 O23         0.3240   -5.5000   -0.5400 o         1 MOL     -0.696614
    157 H67        -4.1290   -3.4600    0.7470 hn        1 MOL      0.235690
    158 H68        -3.2320   -5.2620    2.8780 h1        1 MOL      0.109583
    159 H69        -1.0050   -4.7270    2.2200 hc        1 MOL      0.078752
    160 H70        -1.5500   -3.5010    0.9630 hc        1 MOL      0.078752
    161 H71        -2.8580   -5.5840    0.1140 hc        1 MOL      0.033515
    162 H72        -1.5720   -6.4070    0.9680 hc        1 MOL      0.033515
    163 N14        -3.1470   -2.0670    3.1830 n         1 MOL     -0.101378
    164 C55        -3.0410   -0.9780    4.2100 c3        1 MOL     -0.213691
    165 H73        -2.3780   -1.3010    5.0130 h1        1 MOL      0.088396
    166 H74        -2.6360   -0.0780    3.7450 h1        1 MOL      0.088396
    167 H75        -4.0280   -0.7650    4.6170 h1        1 MOL      0.088396
    168 H76        -3.4000   -1.7620    2.2480 hn        1 MOL      0.185087
    169 Ca1         0.7850   -3.2560   -2.6180 Ca        1 MOL      1.789726
    170 O24         1.1340   -5.6710   -3.5740 oh        1 MOL     -0.841619
    171 H77         2.0020   -5.8940   -3.2530 ho        1 MOL      0.406789
    172 H78         0.8590   -6.4150   -4.0990 ho        1 MOL      0.406789
    173 O25         2.2410   -3.0950   -5.1990 oh        1 MOL     -0.841619
    174 H79         3.1320   -3.1740   -4.8490 ho        1 MOL      0.406789
    175 H80         2.2980   -3.4680   -6.0740 ho        1 MOL      0.406789
    176 O26        -0.8420   -2.8720   -4.5120 oh        1 MOL     -0.841619
    177 H81        -0.6740   -3.3680   -5.3230 ho        1 MOL      0.406789
    178 H82        -1.4930   -2.2190   -4.7700 ho        1 MOL      0.406789
@<TRIPOS>BOND
     1    1    2 1   
     2    1    4 1   
     3    1    5 1   
     4    1    6 1   
     5    2    3 2   
     6    2    7 1   
     7    7    8 1   
     8    7   15 1   
     9    8    9 1   
    10    8   11 1   
    11    8   16 1   
    12    9   10 2   
    13    9   19 1   
    14   11   12 1   
    15   11   17 1   
    16   11   18 1   
    17   12   13 1   
    18   12   14 1   
    19   19   20 1   
    20   19   24 1   
    21   20   21 1   
    22   20   23 1   
    23   20   25 1   
    24   21   22 2   
    25   21   29 1   
    26   23   26 1   
    27   23   27 1   
    28   23   28 1   
    29   29   30 1   
    30   29   37 1   
    31   30   31 1   
    32   30   33 1   
    33   30   38 1   
    34   31   32 2   
    35   31   41 1   
    36   33   34 1   
    37   33   39 1   
    38   33   40 1   
    39   34   35 1   
    40   34   36 1   
    41   41   42 1   
    42   41   45 1   
    43   42   43 1   
    44   42   46 1   
    45   42   47 1   
    46   43   44 2   
    47   43   48 1   
    48   48   49 1   
    49   48   56 1   
    50   49   50 1   
    51   49   52 1   
    52   49   57 1   
    53   50   51 2   
    54   50   62 1   
    55   52   53 1   
    56   52   58 1   
    57   52   59 1   
    58   53   54 1   
    59   53   55 2   
    60   54   60 1   
    61   54   61 1   
    62   62   63 1   
    63   62   66 1   
    64   63   64 1   
    65   63   67 1   
    66   63   68 1   
    67   64   65 2   
    68   64   69 1   
    69   69   70 1   
    70   69   76 1   
    71   70   71 1   
    72   70   73 1   
    73   70   77 1   
    74   71   72 2   
    75   71   83 1   
    76   73   74 1   
    77   73   75 1   
    78   73   78 1   
    79   74   80 1   
    80   74   81 1   
    81   74   82 1   
    82   75   79 1   
    83   83   84 1   
    84   83   91 1   
    85   84   85 1   
    86   84   87 1   
    87   84   92 1   
    88   85   86 2   
    89   85  102 1   
    90   87   88 1   
    91   87   89 1   
    92   87   93 1   
    93   88   90 1   
    94   88   94 1   
    95   88   95 1   
    96   89   96 1   
    97   89   97 1   
    98   89   98 1   
    99   90   99 1   
   100   90  100 1   
   101   90  101 1   
   102  102  103 1   
   103  102  110 1   
   104  103  104 1   
   105  103  106 1   
   106  103  111 1   
   107  104  105 2   
   108  104  114 1   
   109  106  107 1   
   110  106  112 1   
   111  106  113 1   
   112  107  108 1   
   113  107  109 1   
   114  114  115 1   
   115  114  125 1   
   116  115  116 1   
   117  115  118 1   
   118  115  126 1   
   119  116  117 2   
   120  116  134 1   
   121  118  119 1   
   122  118  127 1   
   123  118  128 1   
   124  119  120 ar  
   125  119  121 ar  
   126  120  122 ar  
   127  120  129 1   
   128  121  123 ar  
   129  121  130 1   
   130  122  124 ar  
   131  122  131 1   
   132  123  124 ar  
   133  123  132 1   
   134  124  133 1   
   135  134  135 1   
   136  134  140 1   
   137  135  136 1   
   138  135  138 1   
   139  135  141 1   
   140  136  137 2   
   141  136  148 1   
   142  138  139 1   
   143  138  142 1   
   144  138  143 1   
   145  139  140 1   
   146  139  144 1   
   147  139  145 1   
   148  140  146 1   
   149  140  147 1   
   150  148  149 1   
   151  148  157 1   
   152  149  150 1   
   153  149  152 1   
   154  149  158 1   
   155  150  151 2   
   156  150  163 1   
   157  152  153 1   
   158  152  159 1   
   159  152  160 1   
   160  153  154 1   
   161  153  161 1   
   162  153  162 1   
   163  154  155 1   
   164  154  156 1   
   165  163  164 1   
   166  163  168 1   
   167  164  165 1   
   168  164  166 1   
   169  164  167 1   
   170  170  171 1   
   171  170  172 1   
   172  173  174 1   
   173  173  175 1   
   174  176  177 1   
   175  176  178 1   
@<TRIPOS>SUBSTRUCTURE
     1 MOL         1 TEMP              0 ****  ****    0 ROOT
