@<TRIPOS>MOLECULE
MOL
  175   173     1     0     0
SMALL
resp


@<TRIPOS>ATOM
      1 C1          6.9540   -7.6950    1.4030 c3        1 MOL     -0.456653
      2 C2          8.0140   -6.8150    0.6720 c         1 MOL      0.763243
      3 O1          8.3830   -7.0360   -0.4420 o         1 MOL     -0.597252
      4 H1          5.9950   -7.6060    0.8930 hc        1 MOL      0.108283
      5 H2          7.2760   -8.7360    1.3920 hc        1 MOL      0.108283
      6 H3          6.8490   -7.3570    2.4330 hc        1 MOL      0.108283
      7 N1          8.6180   -5.8280    1.3510 n         1 MOL     -0.674871
      8 C3          9.4920   -4.8170    0.7280 c3        1 MOL      0.472067
      9 C4          8.7450   -3.6260    0.0800 c         1 MOL      0.479310
     10 O2          9.3180   -2.5540   -0.1490 o         1 MOL     -0.488989
     11 C5         10.4720   -4.3180    1.8370 c3        1 MOL     -0.406844
     12 C6         11.7370   -3.7570    1.1780 c         1 MOL      0.747210
     13 O3         11.9910   -3.9550   -0.0440 o         1 MOL     -0.726251
     14 O4         12.5460   -3.1280    1.8310 o         1 MOL     -0.726251
     15 H4          8.2220   -5.6500    2.2640 hn        1 MOL      0.298282
     16 H5         10.0790   -5.1760   -0.1130 h1        1 MOL     -0.000581
     17 H6         10.6680   -5.0180    2.6420 hc        1 MOL      0.058238
     18 H7          9.9280   -3.5170    2.3340 hc        1 MOL      0.058238
     19 N2          7.4920   -3.8400   -0.3800 n         1 MOL     -0.759720
     20 C7          6.8090   -2.8220   -1.2270 c3        1 MOL      0.782813
     21 C8          5.3260   -2.5280   -0.7440 c         1 MOL      0.270219
     22 O5          4.7430   -3.3330    0.0120 o         1 MOL     -0.520756
     23 C9          6.8460   -3.4320   -2.6050 c3        1 MOL     -0.390499
     24 H8          7.1350   -4.7820   -0.3210 hn        1 MOL      0.302508
     25 H9          7.3200   -1.8610   -1.2460 h1        1 MOL     -0.149917
     26 H10         7.8440   -3.7570   -2.8830 hc        1 MOL      0.085285
     27 H11         6.1510   -4.2660   -2.5690 hc        1 MOL      0.085285
     28 H12         6.4950   -2.7320   -3.3740 hc        1 MOL      0.085285
     29 N3          4.5360   -1.4730   -1.1200 n         1 MOL     -0.371965
     30 C10         5.0070   -0.3830   -2.0590 c3        1 MOL      0.060629
     31 C11         5.3510    0.8680   -1.1980 c         1 MOL      0.477126
     32 O6          4.7170    1.2690   -0.2020 o         1 MOL     -0.545431
     33 C12         3.8830   -0.1000   -2.9730 c3        1 MOL     -0.340987
     34 C13         2.5750    0.3690   -2.3360 c         1 MOL      0.927078
     35 O7          2.0940    1.4640   -2.6310 o         1 MOL     -0.774842
     36 O8          2.0230   -0.3830   -1.5070 o         1 MOL     -0.774842
     37 H13         3.6150   -1.4830   -0.7070 hn        1 MOL      0.340161
     38 H14         5.8590   -0.6580   -2.6830 h1        1 MOL      0.098402
     39 H15         3.7420   -1.0380   -3.5080 hc        1 MOL      0.059376
     40 H16         4.2030    0.7410   -3.5850 hc        1 MOL      0.059376
     41 N4          6.3150    1.6500   -1.6750 n         1 MOL     -0.353658
     42 C14         6.6150    3.0610   -1.2640 c3        1 MOL      0.070652
     43 C15         6.3650    4.1620   -2.3180 c         1 MOL      0.547358
     44 O9          7.2800    4.3850   -3.1500 o         1 MOL     -0.556359
     45 H17         6.7630    1.3080   -2.5100 hn        1 MOL      0.255834
     46 H18         7.6800    3.1390   -1.0730 h1        1 MOL      0.043113
     47 H19         6.0690    3.3200   -0.3470 h1        1 MOL      0.043113
     48 N5          5.2370    4.8660   -2.3050 n         1 MOL     -0.574659
     49 C16         3.9690    4.5820   -1.5450 c3        1 MOL      0.171456
     50 C17         4.0430    5.3130   -0.1470 c         1 MOL      0.602313
     51 O10         4.4590    6.4470   -0.0460 o         1 MOL     -0.562473
     52 C18         2.7770    4.9260   -2.4020 c3        1 MOL     -0.326556
     53 C19         1.4690    4.8850   -1.6700 c         1 MOL      0.716201
     54 N6          0.9790    6.1080   -1.4470 n         1 MOL     -0.776892
     55 O11         1.0780    3.9860   -1.0010 o         1 MOL     -0.641612
     56 H20         5.0960    5.5320   -3.0550 hn        1 MOL      0.326044
     57 H21         3.9490    3.5220   -1.2650 h1        1 MOL      0.068611
     58 H22         2.6890    4.1930   -3.2050 hc        1 MOL      0.109089
     59 H23         2.9220    5.9380   -2.7810 hc        1 MOL      0.109089
     60 H24         1.3500    6.8950   -1.9740 hn        1 MOL      0.344787
     61 H25         0.2320    6.2470   -0.7890 hn        1 MOL      0.344787
     62 N7          3.4410    4.6460    0.8360 n         1 MOL     -0.381984
     63 C20         3.3870    5.1000    2.2340 c3        1 MOL     -0.171342
     64 C21         1.9800    5.2820    2.7860 c         1 MOL      0.503745
     65 O12         1.8520    5.6080    3.9540 o         1 MOL     -0.564782
     66 H26         2.8960    3.8050    0.6950 hn        1 MOL      0.318009
     67 H27         3.9550    6.0200    2.3300 h1        1 MOL      0.119079
     68 H28         3.7730    4.3920    2.9680 h1        1 MOL      0.119079
     69 N8          0.9280    4.9730    2.0230 n         1 MOL     -0.021440
     70 C22        -0.4580    5.1000    2.3390 c3        1 MOL     -0.278514
     71 C23        -1.3600    3.8610    2.0120 c         1 MOL      0.584682
     72 O13        -1.1090    3.1460    1.0510 o         1 MOL     -0.593680
     73 C24        -1.1560    6.3530    1.6730 c3        1 MOL      0.263104
     74 C25        -0.3000    7.6220    1.6940 c3        1 MOL     -0.520350
     75 O14        -1.4000    5.9790    0.3950 oh        1 MOL     -0.491295
     76 H29         1.1750    4.7910    1.0680 hn        1 MOL      0.124387
     77 H30        -0.5600    5.1680    3.4270 h1        1 MOL      0.090013
     78 H31        -2.1680    6.4810    2.0610 h1        1 MOL      0.023380
     79 H32        -2.1500    6.5170    0.0910 ho        1 MOL      0.398088
     80 H33        -0.0260    8.0180    2.6810 hc        1 MOL      0.142167
     81 H34         0.5820    7.5060    1.0600 hc        1 MOL      0.142167
     82 H35        -0.9630    8.3910    1.2980 hc        1 MOL      0.142167
     83 N9         -2.3620    3.6500    2.7710 n         1 MOL     -0.335318
     84 C26        -3.4200    2.6810    2.5190 c3        1 MOL     -0.224047
     85 C27        -4.2840    3.0300    1.3420 c         1 MOL      0.610405
     86 O15        -5.0690    3.9600    1.4020 o         1 MOL     -0.596240
     87 C28        -4.1800    2.4860    3.8820 c3        1 MOL      0.196015
     88 C29        -5.1480    1.3020    3.7910 c3        1 MOL     -0.027566
     89 C30        -3.0870    2.2880    5.0040 c3        1 MOL     -0.433912
     90 C31        -4.5650   -0.1030    3.6460 c3        1 MOL     -0.130453
     91 H36        -2.5240    4.3060    3.5240 hn        1 MOL      0.279639
     92 H37        -2.9200    1.7590    2.2420 h1        1 MOL      0.205676
     93 H38        -4.7280    3.3960    4.0790 hc        1 MOL     -0.011787
     94 H39        -5.7850    1.4890    2.9210 hc        1 MOL     -0.001323
     95 H40        -5.7730    1.3160    4.6900 hc        1 MOL     -0.001323
     96 H41        -2.2570    1.7210    4.5910 hc        1 MOL      0.117329
     97 H42        -2.7420    3.2610    5.3350 hc        1 MOL      0.117329
     98 H43        -3.5130    1.7230    5.8320 hc        1 MOL      0.117329
     99 H44        -3.7290   -0.1810    2.9540 hc        1 MOL      0.028042
    100 H45        -4.2460   -0.4450    4.6340 hc        1 MOL      0.028042
    101 H46        -5.2780   -0.8130    3.2360 hc        1 MOL      0.028042
    102 N10        -4.2450    2.2700    0.2200 n         1 MOL     -0.291658
    103 C32        -5.0620    2.5640   -1.0050 c3        1 MOL      0.070538
    104 C33        -5.8720    1.3460   -1.5180 c         1 MOL      0.520220
    105 O16        -6.3920    1.3530   -2.6370 o         1 MOL     -0.527929
    106 C34        -4.2220    3.1520   -2.1460 c3        1 MOL      0.007201
    107 C35        -3.0850    2.2100   -2.5110 c         1 MOL      0.637248
    108 O17        -1.9200    2.4620   -2.1610 o         1 MOL     -0.704706
    109 O18        -3.4090    1.1200   -3.0470 o         1 MOL     -0.704706
    110 H47        -3.5920    1.5070    0.2340 hn        1 MOL      0.219862
    111 H48        -5.7610    3.3780   -0.8200 h1        1 MOL      0.048983
    112 H49        -3.7590    4.0450   -1.7250 hc        1 MOL     -0.016081
    113 H50        -4.8470    3.4220   -2.9980 hc        1 MOL     -0.016081
    114 N11        -6.1370    0.3340   -0.6480 n         1 MOL     -0.646267
    115 C36        -6.9200   -0.8290   -1.1860 c3        1 MOL      0.397691
    116 C37        -6.3620   -2.0910   -0.4220 c         1 MOL      0.383874
    117 O19        -6.0890   -2.0490    0.7750 o         1 MOL     -0.504546
    118 C38        -8.4190   -0.5420   -0.8710 c3        1 MOL     -0.306697
    119 C39        -9.3970   -1.6760   -1.2750 ca        1 MOL      0.122272
    120 C40        -9.7850   -2.6650   -0.3510 ca        1 MOL     -0.168239
    121 C41        -9.7470   -1.9600   -2.5730 ca        1 MOL     -0.168239
    122 C42       -10.5990   -3.7630   -0.7030 ca        1 MOL     -0.090463
    123 C43       -10.6290   -3.0130   -2.9750 ca        1 MOL     -0.090463
    124 C44       -11.0920   -3.9610   -2.0300 ca        1 MOL     -0.181216
    125 H51        -5.6550    0.2470    0.2350 hn        1 MOL      0.344258
    126 H52        -6.8420   -0.9800   -2.2660 h1        1 MOL      0.057274
    127 H53        -8.6400    0.3220   -1.4990 hc        1 MOL      0.105512
    128 H54        -8.5030   -0.2710    0.1820 hc        1 MOL      0.105512
    129 H55        -9.5750   -2.6480    0.7110 ha        1 MOL      0.115134
    130 H56        -9.3340   -1.3050   -3.3200 ha        1 MOL      0.115134
    131 H57       -10.9010   -4.4610    0.0620 ha        1 MOL      0.103870
    132 H58       -10.8830   -3.0460   -4.0200 ha        1 MOL      0.103870
    133 H59       -11.6440   -4.8740   -2.2000 ha        1 MOL      0.131977
    134 N12        -6.2770   -3.3050   -1.0590 n         1 MOL     -0.215873
    135 C45        -6.1560   -4.6570   -0.4040 c3        1 MOL      0.148842
    136 C46        -4.8670   -4.9230    0.3640 c         1 MOL      0.545016
    137 O20        -4.7500   -5.9450    0.9250 o         1 MOL     -0.554218
    138 C47        -6.5370   -5.6630   -1.4690 c3        1 MOL     -0.340051
    139 C48        -7.1710   -4.8230   -2.5620 c3        1 MOL      0.203396
    140 C49        -6.3940   -3.5620   -2.4900 c3        1 MOL     -0.204028
    141 H60        -6.9170   -4.5800    0.3650 h1        1 MOL      0.036576
    142 H61        -5.6020   -6.1240   -1.7700 hc        1 MOL      0.109617
    143 H62        -7.2490   -6.3590   -1.0180 hc        1 MOL      0.109617
    144 H63        -7.1020   -5.3170   -3.5350 hc        1 MOL     -0.015957
    145 H64        -8.2190   -4.5780   -2.3720 hc        1 MOL     -0.015957
    146 H65        -5.3870   -3.6670   -2.8980 h1        1 MOL      0.096120
    147 H66        -6.9100   -2.7730   -3.0460 h1        1 MOL      0.096120
    148 N13        -3.9310   -3.9590    0.3450 n         1 MOL     -0.384597
    149 C50        -2.6530   -4.2050    1.0420 c3        1 MOL     -0.184256
    150 C51        -2.6940   -4.6250    2.4970 c         1 MOL      0.511403
    151 O21        -1.7090   -5.0840    3.0530 o         1 MOL     -0.536945
    152 C52        -1.7610   -3.0240    0.7770 c3        1 MOL      0.061057
    153 C53        -2.1350   -1.7690    1.5830 c3        1 MOL     -0.168470
    154 C54        -1.3900   -0.5850    0.9870 c         1 MOL      0.589636
    155 O22        -2.0570    0.0930    0.1620 o         1 MOL     -0.651336
    156 O23        -0.2330   -0.3060    1.3400 o         1 MOL     -0.651336
    157 H67        -4.1310   -3.0280    0.0190 hn        1 MOL      0.261611
    158 H68        -2.0930   -5.0500    0.6370 h1        1 MOL      0.143357
    159 H69        -1.8800   -2.7900   -0.2870 hc        1 MOL      0.044855
    160 H70        -0.6940   -3.2760    0.7520 hc        1 MOL      0.044855
    161 H71        -1.9980   -1.8140    2.6640 hc        1 MOL      0.039571
    162 H72        -3.1970   -1.6740    1.3850 hc        1 MOL      0.039571
    163 N14        -3.8220   -4.4330    3.2380 n         1 MOL     -0.203863
    164 C55        -3.9060   -4.7450    4.6800 c3        1 MOL     -0.160204
    165 H73        -4.5870   -5.5820    4.8300 h1        1 MOL      0.079586
    166 H74        -2.9160   -5.0100    5.0530 h1        1 MOL      0.079586
    167 H75        -4.2770   -3.8740    5.2190 h1        1 MOL      0.079586
    168 H76        -4.6390   -4.1270    2.7160 hn        1 MOL      0.204252
    169 Ca1         0.1570    1.4780   -0.7940 Ca        1 MOL      1.741988
    170 O24         2.2930    1.6600    0.9210 oh        1 MOL     -0.950828
    171 H77         3.1640    1.6310    0.5190 ho        1 MOL      0.437067
    172 H78         2.3310    1.0270    1.6350 ho        1 MOL      0.437067
    173 O25        -0.7770   -0.0740   -2.8570 oh        1 MOL     -0.950828
    174 H79        -0.7290   -0.7100   -3.5660 ho        1 MOL      0.437067
    175 H80        -1.6520    0.3070   -2.9190 ho        1 MOL      0.437067
@<TRIPOS>BOND
     1    1    2 1   
     2    1    4 1   
     3    1    5 1   
     4    1    6 1   
     5    2    3 2   
     6    2    7 1   
     7    7    8 1   
     8    7   15 1   
     9    8    9 1   
    10    8   11 1   
    11    8   16 1   
    12    9   10 2   
    13    9   19 1   
    14   11   12 1   
    15   11   17 1   
    16   11   18 1   
    17   12   13 1   
    18   12   14 1   
    19   19   20 1   
    20   19   24 1   
    21   20   21 1   
    22   20   23 1   
    23   20   25 1   
    24   21   22 2   
    25   21   29 1   
    26   23   26 1   
    27   23   27 1   
    28   23   28 1   
    29   29   30 1   
    30   29   37 1   
    31   30   31 1   
    32   30   33 1   
    33   30   38 1   
    34   31   32 2   
    35   31   41 1   
    36   33   34 1   
    37   33   39 1   
    38   33   40 1   
    39   34   35 1   
    40   34   36 1   
    41   41   42 1   
    42   41   45 1   
    43   42   43 1   
    44   42   46 1   
    45   42   47 1   
    46   43   44 2   
    47   43   48 1   
    48   48   49 1   
    49   48   56 1   
    50   49   50 1   
    51   49   52 1   
    52   49   57 1   
    53   50   51 2   
    54   50   62 1   
    55   52   53 1   
    56   52   58 1   
    57   52   59 1   
    58   53   54 1   
    59   53   55 2   
    60   54   60 1   
    61   54   61 1   
    62   62   63 1   
    63   62   66 1   
    64   63   64 1   
    65   63   67 1   
    66   63   68 1   
    67   64   65 2   
    68   64   69 1   
    69   69   70 1   
    70   69   76 1   
    71   70   71 1   
    72   70   73 1   
    73   70   77 1   
    74   71   72 2   
    75   71   83 1   
    76   73   74 1   
    77   73   75 1   
    78   73   78 1   
    79   74   80 1   
    80   74   81 1   
    81   74   82 1   
    82   75   79 1   
    83   83   84 1   
    84   83   91 1   
    85   84   85 1   
    86   84   87 1   
    87   84   92 1   
    88   85   86 2   
    89   85  102 1   
    90   87   88 1   
    91   87   89 1   
    92   87   93 1   
    93   88   90 1   
    94   88   94 1   
    95   88   95 1   
    96   89   96 1   
    97   89   97 1   
    98   89   98 1   
    99   90   99 1   
   100   90  100 1   
   101   90  101 1   
   102  102  103 1   
   103  102  110 1   
   104  103  104 1   
   105  103  106 1   
   106  103  111 1   
   107  104  105 2   
   108  104  114 1   
   109  106  107 1   
   110  106  112 1   
   111  106  113 1   
   112  107  108 1   
   113  107  109 1   
   114  114  115 1   
   115  114  125 1   
   116  115  116 1   
   117  115  118 1   
   118  115  126 1   
   119  116  117 2   
   120  116  134 1   
   121  118  119 1   
   122  118  127 1   
   123  118  128 1   
   124  119  120 ar  
   125  119  121 ar  
   126  120  122 ar  
   127  120  129 1   
   128  121  123 ar  
   129  121  130 1   
   130  122  124 ar  
   131  122  131 1   
   132  123  124 ar  
   133  123  132 1   
   134  124  133 1   
   135  134  135 1   
   136  134  140 1   
   137  135  136 1   
   138  135  138 1   
   139  135  141 1   
   140  136  137 2   
   141  136  148 1   
   142  138  139 1   
   143  138  142 1   
   144  138  143 1   
   145  139  140 1   
   146  139  144 1   
   147  139  145 1   
   148  140  146 1   
   149  140  147 1   
   150  148  149 1   
   151  148  157 1   
   152  149  150 1   
   153  149  152 1   
   154  149  158 1   
   155  150  151 2   
   156  150  163 1   
   157  152  153 1   
   158  152  159 1   
   159  152  160 1   
   160  153  154 1   
   161  153  161 1   
   162  153  162 1   
   163  154  155 1   
   164  154  156 1   
   165  163  164 1   
   166  163  168 1   
   167  164  165 1   
   168  164  166 1   
   169  164  167 1   
   170  170  171 1   
   171  170  172 1   
   172  173  174 1   
   173  173  175 1   
@<TRIPOS>SUBSTRUCTURE
     1 MOL         1 TEMP              0 ****  ****    0 ROOT
