@<TRIPOS>MOLECULE
MOL
  181   177     1     0     0
SMALL
resp


@<TRIPOS>ATOM
      1 C1          2.1460   -1.7690    4.0180 c3        1 MOL     -0.299672
      2 C2          3.0250   -0.6290    3.4000 c         1 MOL      0.508958
      3 O1          2.6000   -0.1240    2.3580 o         1 MOL     -0.512606
      4 H1          2.7530   -2.6650    4.1470 hc        1 MOL      0.075294
      5 H2          1.7620   -1.4480    4.9860 hc        1 MOL      0.075294
      6 H3          1.3130   -1.9880    3.3510 hc        1 MOL      0.075294
      7 N1          4.0990   -0.1140    4.0070 n         1 MOL     -0.373019
      8 C3          4.9100    0.9070    3.4440 c3        1 MOL      0.097432
      9 C4          5.6750    0.4480    2.1480 c         1 MOL      0.552387
     10 O2          5.9250    1.2030    1.1980 o         1 MOL     -0.547519
     11 C5          5.9950    1.4080    4.4800 c3        1 MOL     -0.366159
     12 C6          7.0140    0.4300    5.0630 c         1 MOL      0.775943
     13 O3          7.9460    0.9020    5.7660 o         1 MOL     -0.733736
     14 O4          6.8720   -0.8000    4.9540 o         1 MOL     -0.733736
     15 H4          4.4180   -0.5280    4.8710 hn        1 MOL      0.265014
     16 H5          4.3030    1.7650    3.1470 h1        1 MOL      0.043464
     17 H6          5.4050    1.8660    5.2850 hc        1 MOL      0.076902
     18 H7          6.5780    2.1470    3.9370 hc        1 MOL      0.076902
     19 N2          5.9800   -0.8560    2.0950 n         1 MOL     -0.366851
     20 C7          6.2930   -1.5270    0.8250 c3        1 MOL      0.229466
     21 C8          5.4010   -1.1120   -0.3670 c         1 MOL      0.421951
     22 O5          4.2630   -1.4280   -0.4810 o         1 MOL     -0.541530
     23 C9          7.7850   -1.3780    0.5110 c3        1 MOL     -0.415465
     24 H8          5.6170   -1.4820    2.7960 hn        1 MOL      0.250497
     25 H9          6.0620   -2.5710    1.0560 h1        1 MOL      0.046367
     26 H10         8.3310   -1.9760    1.2420 hc        1 MOL      0.102447
     27 H11         7.9890   -1.8200   -0.4600 hc        1 MOL      0.102447
     28 H12         8.0160   -0.3190    0.6300 hc        1 MOL      0.102447
     29 N3          5.9340   -0.2270   -1.2190 n         1 MOL     -0.378652
     30 C10         5.1820    0.3290   -2.3920 c3        1 MOL     -0.039726
     31 C11         5.2780    1.8170   -2.5090 c         1 MOL      0.613690
     32 O6          5.4530    2.4390   -3.5400 o         1 MOL     -0.558601
     33 C12         5.5180   -0.4200   -3.6660 c3        1 MOL     -0.118844
     34 C13         5.1480   -1.9100   -3.6060 c         1 MOL      0.721353
     35 O7          3.9600   -2.2030   -3.2580 o         1 MOL     -0.717607
     36 O8          6.0020   -2.6760   -4.0280 o         1 MOL     -0.717607
     37 H13         6.7690    0.2950   -0.9970 hn        1 MOL      0.241157
     38 H14         4.1260    0.1380   -2.2060 h1        1 MOL      0.138792
     39 H15         6.5480   -0.1900   -3.9460 hc        1 MOL      0.020992
     40 H16         4.8440    0.0060   -4.4000 hc        1 MOL      0.020992
     41 N4          5.2630    2.5040   -1.3360 n         1 MOL     -0.287838
     42 C14         5.2580    3.9560   -1.2220 c3        1 MOL     -0.102629
     43 C15         3.9970    4.6640   -1.6530 c         1 MOL      0.695758
     44 O9          4.1620    5.8760   -1.9230 o         1 MOL     -0.575968
     45 H17         5.1720    1.9230   -0.5200 hn        1 MOL      0.221623
     46 H18         5.9990    4.4550   -1.8490 h1        1 MOL      0.049652
     47 H19         5.5140    4.1710   -0.1790 h1        1 MOL      0.049652
     48 N5          2.8690    3.9280   -1.5850 n         1 MOL     -0.438343
     49 C16         1.5450    4.2460   -2.1440 c3        1 MOL      0.010632
     50 C17         0.7930    5.3200   -1.3180 c         1 MOL      0.512212
     51 O10         1.1390    5.7150   -0.1520 o         1 MOL     -0.545355
     52 C18         0.7590    2.8950   -2.4410 c3        1 MOL     -0.313890
     53 C19         1.4780    1.9560   -3.3940 c         1 MOL      0.565269
     54 N6          1.7650    0.7440   -3.0100 n         1 MOL     -0.646977
     55 O11         1.9320    2.4180   -4.4460 o         1 MOL     -0.550561
     56 H20         2.9500    3.0080   -1.1710 hn        1 MOL      0.247153
     57 H21         1.6920    4.7420   -3.1020 h1        1 MOL      0.065132
     58 H22        -0.1870    3.1750   -2.9070 hc        1 MOL      0.167340
     59 H23         0.5060    2.4640   -1.4750 hc        1 MOL      0.167340
     60 H24         1.4470    0.2510   -2.1850 hn        1 MOL      0.291884
     61 H25         2.0500    0.1540   -3.7780 hn        1 MOL      0.291884
     62 N7         -0.1540    5.9840   -1.9940 n         1 MOL     -0.347101
     63 C20        -0.8810    7.1480   -1.5060 c3        1 MOL     -0.080648
     64 C21        -2.3690    6.9020   -1.2350 c         1 MOL      0.460284
     65 O12        -3.0350    6.2920   -2.0590 o         1 MOL     -0.512859
     66 H26        -0.5090    5.5870   -2.8500 hn        1 MOL      0.271021
     67 H27        -0.7300    7.9410   -2.2400 h1        1 MOL      0.082700
     68 H28        -0.4680    7.5560   -0.5940 h1        1 MOL      0.082700
     69 N8         -2.7700    7.2260   -0.0490 n         1 MOL     -0.327197
     70 C22        -4.1660    6.9650    0.4340 c3        1 MOL     -0.394129
     71 C23        -4.3790    5.4980    0.8030 c         1 MOL      0.497984
     72 O13        -5.4690    5.1050    1.1000 o         1 MOL     -0.544669
     73 C24        -4.7380    7.9700    1.5220 c3        1 MOL      0.485850
     74 C25        -4.2510    7.6340    2.8970 c3        1 MOL     -0.226459
     75 O14        -4.4630    9.2920    1.1620 oh        1 MOL     -0.628927
     76 H29        -2.2030    7.7970    0.5720 hn        1 MOL      0.249169
     77 H30        -4.7480    7.1040   -0.4820 h1        1 MOL      0.195157
     78 H31        -5.8270    7.9030    1.5080 h1        1 MOL      0.038273
     79 H32        -3.5280    9.4910    1.2390 ho        1 MOL      0.386666
     80 H33        -4.5270    8.4660    3.5340 hc        1 MOL      0.045233
     81 H34        -4.4490    6.6350    3.2900 hc        1 MOL      0.045233
     82 H35        -3.1530    7.6230    2.8910 hc        1 MOL      0.045233
     83 N9         -3.2840    4.7460    0.8520 n         1 MOL     -0.095583
     84 C26        -3.3630    3.2630    1.0280 c3        1 MOL     -0.025688
     85 C27        -2.5170    2.5170   -0.0130 c         1 MOL      0.419995
     86 O15        -1.8000    3.1990   -0.7430 o         1 MOL     -0.456170
     87 C28        -2.9090    2.8820    2.4730 c3        1 MOL      0.055851
     88 C29        -1.4020    2.9810    2.7850 c3        1 MOL     -0.148547
     89 C30        -3.7870    3.6690    3.4750 c3        1 MOL     -0.220176
     90 C31        -0.7610    4.4260    2.7470 c3        1 MOL     -0.006286
     91 H36        -2.3900    5.1010    0.5540 hn        1 MOL      0.161580
     92 H37        -4.3950    2.9740    0.8270 h1        1 MOL      0.079838
     93 H38        -3.1600    1.8340    2.6360 hc        1 MOL     -0.012676
     94 H39        -0.7860    2.3860    2.1180 hc        1 MOL      0.087106
     95 H40        -1.2760    2.5990    3.7990 hc        1 MOL      0.087106
     96 H41        -3.5000    4.7210    3.3950 hc        1 MOL      0.057547
     97 H42        -4.8540    3.4910    3.3280 hc        1 MOL      0.057547
     98 H43        -3.5260    3.3490    4.4820 hc        1 MOL      0.057547
     99 H44        -0.5500    4.5880    1.6870 hc        1 MOL      0.012624
    100 H45        -1.4350    5.1430    3.2000 hc        1 MOL      0.012624
    101 H46         0.0810    4.3780    3.4260 hc        1 MOL      0.012624
    102 N10        -2.6450    1.1770   -0.0420 n         1 MOL     -0.409628
    103 C32        -1.7340    0.2680   -0.7060 c3        1 MOL      0.030752
    104 C33        -2.4430   -0.7660   -1.6160 c         1 MOL      0.554879
    105 O16        -1.9190   -1.1230   -2.6340 o         1 MOL     -0.525523
    106 C34        -0.8770   -0.4280    0.4090 c3        1 MOL     -0.149129
    107 C35         0.1630   -1.3480   -0.2570 c         1 MOL      0.786564
    108 O17         1.1360   -0.7670   -0.7100 o         1 MOL     -0.728986
    109 O18         0.0460   -2.5780   -0.1840 o         1 MOL     -0.728986
    110 H47        -3.3170    0.7310    0.5660 hn        1 MOL      0.262271
    111 H48        -1.0520    0.7840   -1.3750 h1        1 MOL      0.031050
    112 H49        -1.5110   -0.9530    1.1250 hc        1 MOL      0.038261
    113 H50        -0.3420    0.3810    0.9030 hc        1 MOL      0.038261
    114 N11        -3.5510   -1.3230   -1.1050 n         1 MOL     -0.360846
    115 C36        -4.3550   -2.3520   -1.7710 c3        1 MOL      0.086459
    116 C37        -4.8760   -3.4370   -0.8660 c         1 MOL      0.252888
    117 O19        -5.0900   -3.1800    0.2630 o         1 MOL     -0.413592
    118 C38        -5.4990   -1.6230   -2.4610 c3        1 MOL     -0.409650
    119 C39        -6.2360   -0.5830   -1.6740 ca        1 MOL      0.202185
    120 C40        -7.3010   -1.0170   -0.8190 ca        1 MOL     -0.250376
    121 C41        -5.8990    0.7730   -1.6820 ca        1 MOL     -0.250376
    122 C42        -7.8150   -0.1340    0.1770 ca        1 MOL     -0.034270
    123 C43        -6.4860    1.6900   -0.7970 ca        1 MOL     -0.034270
    124 C44        -7.3140    1.1870    0.2280 ca        1 MOL     -0.201709
    125 H51        -3.8340   -1.0490   -0.1850 hn        1 MOL      0.314485
    126 H52        -3.6840   -2.7080   -2.5630 h1        1 MOL      0.065047
    127 H53        -6.2280   -2.3430   -2.8400 hc        1 MOL      0.142049
    128 H54        -5.0440   -1.1060   -3.3080 hc        1 MOL      0.142049
    129 H55        -7.5010   -2.0750   -0.9050 ha        1 MOL      0.144828
    130 H56        -5.1580    1.1970   -2.3570 ha        1 MOL      0.144828
    131 H57        -8.6010   -0.4220    0.8570 ha        1 MOL      0.103741
    132 H58        -6.2080    2.7320   -0.8110 ha        1 MOL      0.103741
    133 H59        -7.6600    1.8470    1.0120 ha        1 MOL      0.130205
    134 N12        -4.8560   -4.7390   -1.2470 n         1 MOL      0.047551
    135 C45        -5.3060   -5.8900   -0.5290 c3        1 MOL      0.039521
    136 C46        -4.6560   -6.1360    0.8100 c         1 MOL      0.336688
    137 O20        -5.0850   -7.0030    1.5650 o         1 MOL     -0.536680
    138 C47        -5.2050   -7.0770   -1.5290 c3        1 MOL     -0.050296
    139 C48        -5.3830   -6.3290   -2.8240 c3        1 MOL     -0.006167
    140 C49        -4.7700   -4.9980   -2.6500 c3        1 MOL     -0.156967
    141 H60        -6.3360   -5.6850   -0.2230 h1        1 MOL      0.045958
    142 H61        -4.2040   -7.4960   -1.4100 hc        1 MOL      0.041065
    143 H62        -5.9310   -7.8830   -1.4100 hc        1 MOL      0.041065
    144 H63        -5.0040   -6.7950   -3.7280 hc        1 MOL      0.028174
    145 H64        -6.4530   -6.2030   -2.9650 hc        1 MOL      0.028174
    146 H65        -3.7070   -5.0210   -2.9090 h1        1 MOL      0.073735
    147 H66        -5.3530   -4.3360   -3.2880 h1        1 MOL      0.073735
    148 N13        -3.5070   -5.5410    1.0600 n         1 MOL     -0.055256
    149 C50        -2.7170   -5.6630    2.3100 c3        1 MOL     -0.032130
    150 C51        -3.1420   -4.5550    3.3160 c         1 MOL      0.367643
    151 O21        -2.8520   -4.6800    4.4990 o         1 MOL     -0.530740
    152 C52        -1.2310   -5.3760    1.9580 c3        1 MOL      0.067325
    153 C53        -0.5670   -6.4050    1.0800 c3        1 MOL     -0.318510
    154 C54         0.8760   -5.9330    0.7360 c         1 MOL      0.791671
    155 O22         1.1450   -5.4390   -0.3780 o         1 MOL     -0.730500
    156 O23         1.7510   -6.0820    1.5960 o         1 MOL     -0.730500
    157 H67        -3.0210   -5.1970    0.2410 hn        1 MOL      0.159922
    158 H68        -2.7630   -6.6560    2.7490 h1        1 MOL      0.088619
    159 H69        -0.7290   -5.4100    2.9190 hc        1 MOL      0.036254
    160 H70        -1.1580   -4.4200    1.4440 hc        1 MOL      0.036254
    161 H71        -1.1620   -6.7800    0.2520 hc        1 MOL      0.050516
    162 H72        -0.3910   -7.2620    1.7310 hc        1 MOL      0.050516
    163 N14        -3.8530   -3.5710    2.8000 n         1 MOL     -0.034422
    164 C55        -4.4190   -2.5850    3.7270 c3        1 MOL     -0.352193
    165 H73        -4.8420   -1.7550    3.1600 h1        1 MOL      0.127024
    166 H74        -5.2030   -3.0530    4.3220 h1        1 MOL      0.127024
    167 H75        -3.6350   -2.2130    4.3860 h1        1 MOL      0.127024
    168 H76        -4.0900   -3.6690    1.8240 hn        1 MOL      0.030922
    169 Ca1         2.3220   -3.1400   -1.1770 Ca        1 MOL      1.739233
    170 O24         4.9370   -4.1770   -1.5180 oh        1 MOL     -0.834610
    171 H77         5.6810   -4.6830   -1.1840 ho        1 MOL      0.398936
    172 H78         5.2770   -3.7560   -2.3140 ho        1 MOL      0.398936
    173 O25         2.6830   -5.0270   -2.9890 oh        1 MOL     -0.834610
    174 H79         2.2760   -4.8420   -3.8310 ho        1 MOL      0.398936
    175 H80         3.5840   -5.2810   -3.2240 ho        1 MOL      0.398936
    176 O26         0.4480   -2.6250   -3.0590 oh        1 MOL     -0.834610
    177 H81        -0.2040   -1.9690   -2.8080 ho        1 MOL      0.398936
    178 H82         0.1870   -2.8910   -3.9460 ho        1 MOL      0.398936
    179 O27         3.3070   -3.8630    1.2050 oh        1 MOL     -0.834610
    180 H83         4.1610   -4.0930    1.5790 ho        1 MOL      0.398936
    181 H84         2.7630   -4.6300    1.3840 ho        1 MOL      0.398936
@<TRIPOS>BOND
     1    1    2 1   
     2    1    4 1   
     3    1    5 1   
     4    1    6 1   
     5    2    3 2   
     6    2    7 1   
     7    7    8 1   
     8    7   15 1   
     9    8    9 1   
    10    8   11 1   
    11    8   16 1   
    12    9   10 2   
    13    9   19 1   
    14   11   12 1   
    15   11   17 1   
    16   11   18 1   
    17   12   13 1   
    18   12   14 1   
    19   19   20 1   
    20   19   24 1   
    21   20   21 1   
    22   20   23 1   
    23   20   25 1   
    24   21   22 2   
    25   21   29 1   
    26   23   26 1   
    27   23   27 1   
    28   23   28 1   
    29   29   30 1   
    30   29   37 1   
    31   30   31 1   
    32   30   33 1   
    33   30   38 1   
    34   31   32 2   
    35   31   41 1   
    36   33   34 1   
    37   33   39 1   
    38   33   40 1   
    39   34   35 1   
    40   34   36 1   
    41   41   42 1   
    42   41   45 1   
    43   42   43 1   
    44   42   46 1   
    45   42   47 1   
    46   43   44 2   
    47   43   48 1   
    48   48   49 1   
    49   48   56 1   
    50   49   50 1   
    51   49   52 1   
    52   49   57 1   
    53   50   51 2   
    54   50   62 1   
    55   52   53 1   
    56   52   58 1   
    57   52   59 1   
    58   53   54 1   
    59   53   55 2   
    60   54   60 1   
    61   54   61 1   
    62   62   63 1   
    63   62   66 1   
    64   63   64 1   
    65   63   67 1   
    66   63   68 1   
    67   64   65 2   
    68   64   69 1   
    69   69   70 1   
    70   69   76 1   
    71   70   71 1   
    72   70   73 1   
    73   70   77 1   
    74   71   72 2   
    75   71   83 1   
    76   73   74 1   
    77   73   75 1   
    78   73   78 1   
    79   74   80 1   
    80   74   81 1   
    81   74   82 1   
    82   75   79 1   
    83   83   84 1   
    84   83   91 1   
    85   84   85 1   
    86   84   87 1   
    87   84   92 1   
    88   85   86 2   
    89   85  102 1   
    90   87   88 1   
    91   87   89 1   
    92   87   93 1   
    93   88   90 1   
    94   88   94 1   
    95   88   95 1   
    96   89   96 1   
    97   89   97 1   
    98   89   98 1   
    99   90   99 1   
   100   90  100 1   
   101   90  101 1   
   102  102  103 1   
   103  102  110 1   
   104  103  104 1   
   105  103  106 1   
   106  103  111 1   
   107  104  105 2   
   108  104  114 1   
   109  106  107 1   
   110  106  112 1   
   111  106  113 1   
   112  107  108 1   
   113  107  109 1   
   114  114  115 1   
   115  114  125 1   
   116  115  116 1   
   117  115  118 1   
   118  115  126 1   
   119  116  117 2   
   120  116  134 1   
   121  118  119 1   
   122  118  127 1   
   123  118  128 1   
   124  119  120 ar  
   125  119  121 ar  
   126  120  122 ar  
   127  120  129 1   
   128  121  123 ar  
   129  121  130 1   
   130  122  124 ar  
   131  122  131 1   
   132  123  124 ar  
   133  123  132 1   
   134  124  133 1   
   135  134  135 1   
   136  134  140 1   
   137  135  136 1   
   138  135  138 1   
   139  135  141 1   
   140  136  137 2   
   141  136  148 1   
   142  138  139 1   
   143  138  142 1   
   144  138  143 1   
   145  139  140 1   
   146  139  144 1   
   147  139  145 1   
   148  140  146 1   
   149  140  147 1   
   150  148  149 1   
   151  148  157 1   
   152  149  150 1   
   153  149  152 1   
   154  149  158 1   
   155  150  151 2   
   156  150  163 1   
   157  152  153 1   
   158  152  159 1   
   159  152  160 1   
   160  153  154 1   
   161  153  161 1   
   162  153  162 1   
   163  154  155 1   
   164  154  156 1   
   165  163  164 1   
   166  163  168 1   
   167  164  165 1   
   168  164  166 1   
   169  164  167 1   
   170  170  171 1   
   171  170  172 1   
   172  173  174 1   
   173  173  175 1   
   174  176  177 1   
   175  176  178 1   
   176  179  180 1   
   177  179  181 1   
@<TRIPOS>SUBSTRUCTURE
     1 MOL         1 TEMP              0 ****  ****    0 ROOT
