@<TRIPOS>MOLECULE
MOL
  175   173     1     0     0
SMALL
resp


@<TRIPOS>ATOM
      1 C1         -5.4240    7.8750    1.0850 c3        1 MOL     -0.302065
      2 C2         -6.6150    7.3650    0.3040 c         1 MOL      0.665461
      3 O1         -6.6930    7.7550   -0.8700 o         1 MOL     -0.597666
      4 H1         -4.9950    7.0590    1.6670 hc        1 MOL      0.067087
      5 H2         -4.6740    8.2610    0.3940 hc        1 MOL      0.067087
      6 H3         -5.7430    8.6710    1.7580 hc        1 MOL      0.067087
      7 N1         -7.4580    6.5460    0.8570 n         1 MOL     -0.428623
      8 C3         -8.5940    5.8950    0.2230 c3        1 MOL      0.149824
      9 C4         -8.1410    4.5970   -0.5200 c         1 MOL      0.558132
     10 O2         -8.8700    4.1180   -1.4150 o         1 MOL     -0.501961
     11 C5         -9.6190    5.4930    1.2770 c3        1 MOL     -0.223552
     12 C6        -11.0200    5.3280    0.6900 c         1 MOL      0.642386
     13 O3        -11.5630    6.2550   -0.0310 o         1 MOL     -0.700084
     14 O4        -11.6310    4.2250    0.8380 o         1 MOL     -0.700084
     15 H4         -7.3400    6.3250    1.8340 hn        1 MOL      0.240216
     16 H5         -9.0580    6.6030   -0.4640 h1        1 MOL      0.039656
     17 H6         -9.6950    6.3400    1.9600 hc        1 MOL      0.019544
     18 H7         -9.2120    4.5740    1.6870 hc        1 MOL      0.019544
     19 N2         -6.8780    4.0820   -0.2460 n         1 MOL     -0.510285
     20 C7         -6.3150    2.8630   -0.8460 c3        1 MOL      0.176419
     21 C8         -5.2110    2.2340    0.0440 c         1 MOL      0.429873
     22 O5         -4.4830    3.0050    0.7490 o         1 MOL     -0.507761
     23 C9         -5.7490    3.2870   -2.2190 c3        1 MOL     -0.169526
     24 H8         -6.3240    4.6190    0.4120 hn        1 MOL      0.243239
     25 H9         -7.1600    2.1990   -1.0170 h1        1 MOL      0.037477
     26 H10        -6.5040    3.8370   -2.7790 hc        1 MOL      0.059896
     27 H11        -4.9500    4.0290   -2.1360 hc        1 MOL      0.059896
     28 H12        -5.4140    2.4530   -2.8350 hc        1 MOL      0.059896
     29 N3         -5.0790    0.9020    0.0390 n         1 MOL     -0.371811
     30 C10        -5.8430   -0.1130   -0.7740 c3        1 MOL     -0.003976
     31 C11        -5.9380   -1.4500   -0.0230 c         1 MOL      0.297773
     32 O6         -4.9890   -1.8440    0.5640 o         1 MOL     -0.349552
     33 C12        -5.1650   -0.3540   -2.1340 c3        1 MOL     -0.203524
     34 C13        -3.5550   -0.4200   -2.0960 c         1 MOL      0.779442
     35 O7         -2.9430   -0.6690   -1.0220 o         1 MOL     -0.728154
     36 O8         -2.8540   -0.3890   -3.1680 o         1 MOL     -0.728154
     37 H13        -4.3240    0.5300    0.6110 hn        1 MOL      0.265036
     38 H14        -6.8660    0.1520   -1.0290 h1        1 MOL      0.102711
     39 H15        -5.4240    0.3890   -2.8950 hc        1 MOL      0.053961
     40 H16        -5.5680   -1.2950   -2.5040 hc        1 MOL      0.053961
     41 N4         -7.0090   -2.2810   -0.1690 n         1 MOL     -0.346492
     42 C14        -7.0260   -3.7150    0.1640 c3        1 MOL      0.038476
     43 C15        -7.0120   -4.5260   -1.1060 c         1 MOL      0.539217
     44 O9         -8.0950   -4.9550   -1.5230 o         1 MOL     -0.559600
     45 H17        -7.7910   -1.8810   -0.6730 hn        1 MOL      0.280485
     46 H18        -8.0170   -3.8260    0.6050 h1        1 MOL      0.041803
     47 H19        -6.2520   -3.9420    0.8850 h1        1 MOL      0.041803
     48 N5         -5.8760   -4.9300   -1.6260 n         1 MOL     -0.525943
     49 C16        -4.4970   -4.3970   -1.3380 c3        1 MOL      0.042735
     50 C17        -3.9430   -5.1740   -0.0830 c         1 MOL      0.429929
     51 O10        -3.5890   -6.3500   -0.2000 o         1 MOL     -0.507110
     52 C18        -3.6120   -4.6160   -2.5680 c3        1 MOL     -0.187800
     53 C19        -2.1480   -4.1550   -2.1760 c         1 MOL      0.738288
     54 N6         -1.1100   -4.5740   -2.8490 n         1 MOL     -0.828216
     55 O11        -1.9010   -3.4810   -1.1910 o         1 MOL     -0.754100
     56 H20        -5.8810   -5.7390   -2.2370 hn        1 MOL      0.331134
     57 H21        -4.5700   -3.3390   -1.1030 h1        1 MOL      0.183019
     58 H22        -3.9180   -3.9700   -3.3840 hc        1 MOL      0.072218
     59 H23        -3.5140   -5.6560   -2.8920 hc        1 MOL      0.072218
     60 H24        -1.1330   -5.3840   -3.4510 hn        1 MOL      0.387784
     61 H25        -0.2500   -4.3590   -2.3870 hn        1 MOL      0.387784
     62 N7         -3.7750   -4.5030    1.0980 n         1 MOL     -0.006451
     63 C20        -3.5380   -5.0540    2.3530 c3        1 MOL     -0.212235
     64 C21        -2.0860   -5.4340    2.5380 c         1 MOL      0.627528
     65 O12        -1.9620   -6.4460    3.1590 o         1 MOL     -0.573575
     66 H26        -3.8760   -3.4950    1.1810 hn        1 MOL      0.121614
     67 H27        -4.1120   -5.9720    2.4720 h1        1 MOL      0.071968
     68 H28        -3.8050   -4.3570    3.1450 h1        1 MOL      0.071968
     69 N8         -1.0930   -4.7080    2.1080 n         1 MOL     -0.425551
     70 C22         0.3070   -5.1170    2.0930 c3        1 MOL     -0.067163
     71 C23         1.1440   -3.7350    2.0210 c         1 MOL      0.479427
     72 O13         0.5840   -2.7270    1.6310 o         1 MOL     -0.535732
     73 C24         0.7970   -5.9990    0.9940 c3        1 MOL      0.377044
     74 C25         0.2860   -7.4740    1.1900 c3        1 MOL     -0.517759
     75 O14         0.2810   -5.6050   -0.2310 oh        1 MOL     -0.553835
     76 H29        -1.3680   -3.9510    1.4870 hn        1 MOL      0.324137
     77 H30         0.5450   -5.6850    2.9930 h1        1 MOL      0.083291
     78 H31         1.8770   -6.0710    0.8930 h1        1 MOL      0.013694
     79 H32         0.8650   -5.0250   -0.7250 ho        1 MOL      0.338216
     80 H33         0.6350   -8.0520    0.3350 hc        1 MOL      0.130944
     81 H34         0.7170   -7.8280    2.1270 hc        1 MOL      0.130944
     82 H35        -0.8120   -7.5020    1.2030 hc        1 MOL      0.130944
     83 N9          2.4140   -3.7550    2.3930 n         1 MOL     -0.579721
     84 C26         3.2400   -2.5780    2.3030 c3        1 MOL      0.371366
     85 C27         4.2360   -2.7060    1.0700 c         1 MOL      0.359480
     86 O15         5.2920   -3.2910    1.1070 o         1 MOL     -0.591981
     87 C28         3.9950   -2.2800    3.6200 c3        1 MOL      0.239212
     88 C29         4.7500   -0.9290    3.4550 c3        1 MOL     -0.193710
     89 C30         2.9800   -2.1610    4.7830 c3        1 MOL     -0.410120
     90 C31         3.9560    0.2880    2.8990 c3        1 MOL     -0.174988
     91 H36         2.9050   -4.6290    2.5050 hn        1 MOL      0.292405
     92 H37         2.5970   -1.7080    2.1950 h1        1 MOL      0.035761
     93 H38         4.7290   -3.0670    3.8060 hc        1 MOL     -0.051799
     94 H39         5.5930   -1.0990    2.7920 hc        1 MOL      0.037728
     95 H40         5.1640   -0.6850    4.4300 hc        1 MOL      0.037728
     96 H41         2.7250   -3.1750    5.1120 hc        1 MOL      0.095887
     97 H42         3.2740   -1.6050    5.6750 hc        1 MOL      0.095887
     98 H43         2.1500   -1.6040    4.3550 hc        1 MOL      0.095887
     99 H44         4.6790    1.0890    3.0190 hc        1 MOL      0.065845
    100 H45         3.8230    0.2210    1.8260 hc        1 MOL      0.065845
    101 H46         2.9960    0.4070    3.4090 hc        1 MOL      0.065845
    102 N10         3.8810   -2.1570   -0.0790 n         1 MOL     -0.048294
    103 C32         4.4010   -2.4340   -1.4300 c3        1 MOL      0.215204
    104 C33         5.5260   -1.4650   -1.8820 c         1 MOL      0.493624
    105 O16         5.9150   -1.4380   -2.9930 o         1 MOL     -0.547905
    106 C34         3.3030   -2.7280   -2.4040 c3        1 MOL     -0.425595
    107 C35         2.2390   -3.5810   -1.7610 c         1 MOL      0.702980
    108 O17         2.3940   -4.8220   -1.7700 o         1 MOL     -0.648394
    109 O18         1.1950   -3.0180   -1.3490 o         1 MOL     -0.648394
    110 H47         3.0510   -1.5830   -0.1530 hn        1 MOL     -0.019483
    111 H48         4.9190   -3.3900   -1.3510 h1        1 MOL      0.036096
    112 H49         3.6380   -3.2120   -3.3200 hc        1 MOL      0.121556
    113 H50         2.9140   -1.7480   -2.6860 hc        1 MOL      0.121556
    114 N11         6.0120   -0.5610   -1.0030 n         1 MOL     -0.527392
    115 C36         7.0260    0.5190   -1.3100 c3        1 MOL      0.593634
    116 C37         6.7510    1.8190   -0.5330 c         1 MOL      0.104464
    117 O19         6.3620    1.7500    0.6430 o         1 MOL     -0.443165
    118 C38         8.4370   -0.1060   -1.0210 c3        1 MOL     -0.475064
    119 C39         9.5750    0.9020   -1.0070 ca        1 MOL      0.204647
    120 C40         9.9130    1.6510    0.1530 ca        1 MOL     -0.201094
    121 C41        10.3690    1.1030   -2.1570 ca        1 MOL     -0.201094
    122 C42        10.9780    2.4900    0.2630 ca        1 MOL     -0.080847
    123 C43        11.4280    2.0960   -2.1280 ca        1 MOL     -0.080847
    124 C44        11.7520    2.7130   -0.9030 ca        1 MOL     -0.176319
    125 H51         5.7830   -0.7770   -0.0440 hn        1 MOL      0.243161
    126 H52         6.9240    0.7930   -2.3640 h1        1 MOL     -0.042473
    127 H53         8.6370   -0.9140   -1.7130 hc        1 MOL      0.151305
    128 H54         8.3860   -0.4680    0.0160 hc        1 MOL      0.151305
    129 H55         9.4350    1.5030    1.1090 ha        1 MOL      0.127847
    130 H56        10.2550    0.4540   -3.0080 ha        1 MOL      0.127847
    131 H57        11.2040    2.9980    1.1910 ha        1 MOL      0.109203
    132 H58        12.0320    2.3710   -2.9700 ha        1 MOL      0.109203
    133 H59        12.4570    3.5280   -0.9440 ha        1 MOL      0.116435
    134 N12         7.0680    3.0410   -1.0280 n         1 MOL      0.026462
    135 C45         6.9810    4.2990   -0.1310 c3        1 MOL     -0.008714
    136 C46         5.6010    4.8010    0.1260 c         1 MOL      0.380570
    137 O20         5.4110    6.0050    0.4230 o         1 MOL     -0.543264
    138 C47         7.7940    5.3880   -0.9470 c3        1 MOL      0.128432
    139 C48         8.3320    4.7310   -2.2130 c3        1 MOL     -0.210842
    140 C49         7.5420    3.3710   -2.3570 c3        1 MOL     -0.131586
    141 H60         7.3960    4.0890    0.8520 h1        1 MOL      0.072827
    142 H61         7.1950    6.2790   -1.1510 hc        1 MOL      0.013313
    143 H62         8.6430    5.7970   -0.3930 hc        1 MOL      0.013313
    144 H63         8.0920    5.4540   -2.9850 hc        1 MOL      0.066882
    145 H64         9.3320    4.3440   -2.0110 hc        1 MOL      0.066882
    146 H65         6.6170    3.6950   -2.8520 h1        1 MOL      0.092777
    147 H66         8.1300    2.6370   -2.8960 h1        1 MOL      0.092777
    148 N13         4.5140    3.9810   -0.0060 n         1 MOL     -0.131847
    149 C50         3.1950    4.4440    0.4080 c3        1 MOL     -0.301232
    150 C51         2.9690    4.7280    1.9080 c         1 MOL      0.583822
    151 O21         2.0110    5.3910    2.2640 o         1 MOL     -0.507189
    152 C52         2.1100    3.3710    0.0510 c3        1 MOL      0.001107
    153 C53         2.2500    1.9330    0.5690 c3        1 MOL      0.174295
    154 C54         1.1910    0.8760    0.1490 c         1 MOL      0.614071
    155 O22        -0.0000    1.0200    0.4350 o         1 MOL     -0.721020
    156 O23         1.5870   -0.2490   -0.3130 o         1 MOL     -0.721020
    157 H67         4.7690    3.0030   -0.0820 hn        1 MOL      0.088874
    158 H68         2.8980    5.3450   -0.1310 h1        1 MOL      0.182485
    159 H69         1.9460    3.2620   -1.0250 hc        1 MOL      0.022525
    160 H70         1.1630    3.7190    0.4640 hc        1 MOL      0.022525
    161 H71         2.3990    1.9730    1.6470 hc        1 MOL     -0.033587
    162 H72         3.1750    1.6060    0.1090 hc        1 MOL     -0.033587
    163 N14         3.8360    4.2030    2.8560 n         1 MOL     -0.244119
    164 C55         3.5960    4.2810    4.2810 c3        1 MOL     -0.288442
    165 H73         4.3500    3.6960    4.8080 h1        1 MOL      0.110450
    166 H74         3.6540    5.3210    4.6030 h1        1 MOL      0.110450
    167 H75         2.6070    3.8850    4.5050 h1        1 MOL      0.110450
    168 H76         4.5450    3.5260    2.6050 hn        1 MOL      0.223307
    169 Ca1        -0.5890   -1.4990   -0.4970 Ca        1 MOL      1.709453
    170 O24        -0.0520   -0.2090   -2.9070 oh        1 MOL     -0.832183
    171 H77        -0.9780   -0.1260   -3.1280 ho        1 MOL      0.399157
    172 H78         0.3940   -0.3430   -3.7450 ho        1 MOL      0.399157
    173 O25        -2.5040   -1.8050    1.5990 oh        1 MOL     -0.832183
    174 H79        -3.2500   -1.6140    1.0350 ho        1 MOL      0.399157
    175 H80        -2.4110   -1.0270    2.1540 ho        1 MOL      0.399157
@<TRIPOS>BOND
     1    1    2 1   
     2    1    4 1   
     3    1    5 1   
     4    1    6 1   
     5    2    3 2   
     6    2    7 1   
     7    7    8 1   
     8    7   15 1   
     9    8    9 1   
    10    8   11 1   
    11    8   16 1   
    12    9   10 2   
    13    9   19 1   
    14   11   12 1   
    15   11   17 1   
    16   11   18 1   
    17   12   13 1   
    18   12   14 1   
    19   19   20 1   
    20   19   24 1   
    21   20   21 1   
    22   20   23 1   
    23   20   25 1   
    24   21   22 2   
    25   21   29 1   
    26   23   26 1   
    27   23   27 1   
    28   23   28 1   
    29   29   30 1   
    30   29   37 1   
    31   30   31 1   
    32   30   33 1   
    33   30   38 1   
    34   31   32 2   
    35   31   41 1   
    36   33   34 1   
    37   33   39 1   
    38   33   40 1   
    39   34   35 1   
    40   34   36 1   
    41   41   42 1   
    42   41   45 1   
    43   42   43 1   
    44   42   46 1   
    45   42   47 1   
    46   43   44 2   
    47   43   48 1   
    48   48   49 1   
    49   48   56 1   
    50   49   50 1   
    51   49   52 1   
    52   49   57 1   
    53   50   51 2   
    54   50   62 1   
    55   52   53 1   
    56   52   58 1   
    57   52   59 1   
    58   53   54 1   
    59   53   55 2   
    60   54   60 1   
    61   54   61 1   
    62   62   63 1   
    63   62   66 1   
    64   63   64 1   
    65   63   67 1   
    66   63   68 1   
    67   64   65 2   
    68   64   69 1   
    69   69   70 1   
    70   69   76 1   
    71   70   71 1   
    72   70   73 1   
    73   70   77 1   
    74   71   72 2   
    75   71   83 1   
    76   73   74 1   
    77   73   75 1   
    78   73   78 1   
    79   74   80 1   
    80   74   81 1   
    81   74   82 1   
    82   75   79 1   
    83   83   84 1   
    84   83   91 1   
    85   84   85 1   
    86   84   87 1   
    87   84   92 1   
    88   85   86 2   
    89   85  102 1   
    90   87   88 1   
    91   87   89 1   
    92   87   93 1   
    93   88   90 1   
    94   88   94 1   
    95   88   95 1   
    96   89   96 1   
    97   89   97 1   
    98   89   98 1   
    99   90   99 1   
   100   90  100 1   
   101   90  101 1   
   102  102  103 1   
   103  102  110 1   
   104  103  104 1   
   105  103  106 1   
   106  103  111 1   
   107  104  105 2   
   108  104  114 1   
   109  106  107 1   
   110  106  112 1   
   111  106  113 1   
   112  107  108 1   
   113  107  109 1   
   114  114  115 1   
   115  114  125 1   
   116  115  116 1   
   117  115  118 1   
   118  115  126 1   
   119  116  117 2   
   120  116  134 1   
   121  118  119 1   
   122  118  127 1   
   123  118  128 1   
   124  119  120 ar  
   125  119  121 ar  
   126  120  122 ar  
   127  120  129 1   
   128  121  123 ar  
   129  121  130 1   
   130  122  124 ar  
   131  122  131 1   
   132  123  124 ar  
   133  123  132 1   
   134  124  133 1   
   135  134  135 1   
   136  134  140 1   
   137  135  136 1   
   138  135  138 1   
   139  135  141 1   
   140  136  137 2   
   141  136  148 1   
   142  138  139 1   
   143  138  142 1   
   144  138  143 1   
   145  139  140 1   
   146  139  144 1   
   147  139  145 1   
   148  140  146 1   
   149  140  147 1   
   150  148  149 1   
   151  148  157 1   
   152  149  150 1   
   153  149  152 1   
   154  149  158 1   
   155  150  151 2   
   156  150  163 1   
   157  152  153 1   
   158  152  159 1   
   159  152  160 1   
   160  153  154 1   
   161  153  161 1   
   162  153  162 1   
   163  154  155 1   
   164  154  156 1   
   165  163  164 1   
   166  163  168 1   
   167  164  165 1   
   168  164  166 1   
   169  164  167 1   
   170  170  171 1   
   171  170  172 1   
   172  173  174 1   
   173  173  175 1   
@<TRIPOS>SUBSTRUCTURE
     1 MOL         1 TEMP              0 ****  ****    0 ROOT
