@<TRIPOS>MOLECULE
MOL
  189   185     1     0     0
SMALL
resp


@<TRIPOS>ATOM
      1 C1         10.8850   -0.4310    2.4610 c3        1 MOL     -0.419898
      2 C2          9.5170   -0.2540    1.7850 c         1 MOL      0.631519
      3 O1          8.5970   -0.9180    2.2640 o         1 MOL     -0.606945
      4 H1         10.8770   -1.3390    3.0640 hc        1 MOL      0.102802
      5 H2         11.6600   -0.5090    1.6980 hc        1 MOL      0.102802
      6 H3         11.0880    0.4280    3.1000 hc        1 MOL      0.102802
      7 N1          9.4670    0.4030    0.6320 n         1 MOL     -0.330698
      8 C3          8.3210    0.5590   -0.1910 c3        1 MOL     -0.111242
      9 C4          7.7870   -0.7680   -0.8530 c         1 MOL      0.518914
     10 O2          8.4810   -1.3360   -1.6870 o         1 MOL     -0.504497
     11 C5          8.3790    1.6830   -1.1410 c3        1 MOL     -0.266425
     12 C6          9.5980    1.8820   -1.9660 c         1 MOL      0.729698
     13 O3          9.4350    2.6990   -2.9370 o         1 MOL     -0.645108
     14 O4         10.7520    1.4590   -1.6610 o         1 MOL     -0.645108
     15 H4         10.2790    0.9680    0.3890 hn        1 MOL      0.265657
     16 H5          7.5640    0.9060    0.5160 h1        1 MOL      0.056624
     17 H6          8.3600    2.6200   -0.5670 hc        1 MOL      0.104794
     18 H7          7.5270    1.6710   -1.8130 hc        1 MOL      0.104794
     19 N2          6.7510   -1.4300   -0.3680 n         1 MOL     -0.229484
     20 C7          6.2870   -2.7030   -0.8860 c3        1 MOL      0.043038
     21 C8          4.9110   -2.8060   -1.4540 c         1 MOL      0.582192
     22 O5          4.8270   -3.5030   -2.4460 o         1 MOL     -0.563130
     23 C9          6.5550   -3.8220    0.2110 c3        1 MOL     -0.168998
     24 C10         7.9830   -3.8870    0.8050 c3        1 MOL      0.150021
     25 C11         8.3800   -5.2480    1.3890 c3        1 MOL     -0.117588
     26 C12         9.8820   -5.3170    1.6710 c3        1 MOL      0.095364
     27 N3         10.2640   -6.2450    2.7550 n4        1 MOL     -0.305066
     28 H8          6.2250   -1.0170    0.3970 hn        1 MOL      0.129161
     29 H9          6.8990   -2.9670   -1.7580 h1        1 MOL      0.091977
     30 H10         6.4060   -4.8500   -0.1140 hc        1 MOL      0.045451
     31 H11         5.7890   -3.8710    0.9880 hc        1 MOL      0.045451
     32 H12         7.9590   -3.1670    1.6220 hc        1 MOL      0.008743
     33 H13         8.6460   -3.4830    0.0350 hc        1 MOL      0.008743
     34 H14         8.1290   -6.0010    0.6400 hc        1 MOL      0.038986
     35 H15         7.8120   -5.3790    2.3010 hc        1 MOL      0.038986
     36 H16        10.0910   -4.3000    2.0160 hx        1 MOL      0.066593
     37 H17        10.4670   -5.5450    0.7790 hx        1 MOL      0.066593
     38 H18         9.7310   -6.1110    3.6030 hn        1 MOL      0.297858
     39 H19        10.0420   -7.1870    2.4760 hn        1 MOL      0.297858
     40 H20        11.2330   -6.1650    3.0540 hn        1 MOL      0.297858
     41 N4          3.7840   -2.1860   -0.9710 n         1 MOL     -0.484115
     42 C13         3.5200   -1.3920    0.2410 c3        1 MOL     -0.110791
     43 C14         3.2220    0.0440   -0.2090 c         1 MOL      0.394313
     44 O6          2.7010    0.2400   -1.2810 o         1 MOL     -0.352915
     45 C15         2.5440   -2.1490    1.0920 c3        1 MOL     -0.285047
     46 C16         1.2020   -2.5900    0.3610 c         1 MOL      0.712847
     47 O7          0.8540   -2.0100   -0.6330 o         1 MOL     -0.615111
     48 O8          0.5110   -3.4580    0.8290 o         1 MOL     -0.615111
     49 H21         2.9500   -2.2980   -1.5240 hn        1 MOL      0.375516
     50 H22         4.4430   -1.3550    0.8180 h1        1 MOL      0.118603
     51 H23         2.3630   -1.4300    1.8940 hc        1 MOL      0.088086
     52 H24         3.0070   -3.0770    1.4400 hc        1 MOL      0.088086
     53 N5          3.3480    0.9460    0.8020 n         1 MOL     -0.294364
     54 C17         3.3650    2.3940    0.7190 c3        1 MOL     -0.051976
     55 C18         2.0670    2.9530    0.0750 c         1 MOL      0.450152
     56 O9          0.9950    2.2960    0.0800 o         1 MOL     -0.594855
     57 H25         3.8170    0.6010    1.6260 hn        1 MOL      0.281232
     58 H26         4.1870    2.8360    0.1610 h1        1 MOL      0.075401
     59 H27         3.5240    2.7740    1.7330 h1        1 MOL      0.075401
     60 N6          2.2040    4.0820   -0.6990 n         1 MOL     -0.463951
     61 C19         1.0740    4.8190   -1.3810 c3        1 MOL      0.348941
     62 C20         1.1310    6.3410   -1.0400 c         1 MOL      0.347472
     63 O10         2.1690    6.9670   -0.9300 o         1 MOL     -0.516281
     64 C21         1.2960    4.6520   -2.8330 c3        1 MOL     -0.222280
     65 C22         1.4760    3.2430   -3.3300 c         1 MOL      0.586358
     66 O11         0.7510    2.3250   -2.8040 o         1 MOL     -0.620042
     67 O12         2.2220    2.9430   -4.2680 o         1 MOL     -0.620042
     68 H28         3.1010    4.5280   -0.8690 hn        1 MOL      0.305611
     69 H29         0.1380    4.3620   -1.0860 h1        1 MOL     -0.054892
     70 H30         2.2070    5.1790   -3.1190 hc        1 MOL      0.072650
     71 H31         0.4340    5.1130   -3.3040 hc        1 MOL      0.072650
     72 N7          0.0120    7.0090   -0.8760 n         1 MOL     -0.347528
     73 C23        -1.3320    6.4730   -0.9020 c3        1 MOL     -0.209566
     74 C24        -1.7800    5.7500    0.3350 c         1 MOL      0.774606
     75 O13        -1.1850    5.7990    1.3650 o         1 MOL     -0.587822
     76 H32         0.1530    7.9520   -0.5570 hn        1 MOL      0.311986
     77 H33        -1.5110    5.8160   -1.7560 h1        1 MOL      0.102741
     78 H34        -2.0530    7.2880   -0.9560 h1        1 MOL      0.102741
     79 N8         -2.8320    4.9990    0.2370 n         1 MOL     -0.550453
     80 C25        -3.6500    4.4140    1.2740 c3        1 MOL     -0.114743
     81 C26        -3.0340    3.2710    2.1650 c         1 MOL      0.528940
     82 O14        -3.8610    2.6990    2.8700 o         1 MOL     -0.581893
     83 C27        -5.0420    3.9920    0.9110 c3        1 MOL      0.307225
     84 C28        -5.1430    2.9130   -0.1180 c3        1 MOL     -0.198853
     85 O15        -5.6440    5.0730    0.2320 oh        1 MOL     -0.612187
     86 H35        -3.3570    5.0630   -0.6300 hn        1 MOL      0.315277
     87 H36        -3.8280    5.1550    2.0510 h1        1 MOL      0.102361
     88 H37        -5.6330    3.6670    1.7680 h1        1 MOL      0.015552
     89 H38        -6.5030    5.1170    0.6420 ho        1 MOL      0.384493
     90 H39        -6.2060    2.8010   -0.3190 hc        1 MOL      0.056574
     91 H40        -4.6270    3.1630   -1.0450 hc        1 MOL      0.056574
     92 H41        -4.7830    1.9460    0.2230 hc        1 MOL      0.056574
     93 N9         -1.7420    2.9710    2.1660 n         1 MOL     -0.322305
     94 C29        -1.1810    1.8230    2.9430 c3        1 MOL      0.040765
     95 C30        -1.3110    0.4990    2.1860 c         1 MOL      0.352432
     96 O16        -0.7700    0.3650    1.0520 o         1 MOL     -0.418499
     97 C31         0.3150    2.1610    3.3670 c3        1 MOL      0.240043
     98 C32         0.5700    3.5110    3.9980 c3        1 MOL     -0.160792
     99 C33         0.7670    1.0360    4.2770 c3        1 MOL     -0.315981
    100 C34        -0.3780    3.8890    5.0950 c3        1 MOL     -0.422521
    101 H42        -1.1180    3.5730    1.6540 hn        1 MOL      0.369986
    102 H43        -1.6950    1.7710    3.9000 h1        1 MOL      0.033019
    103 H44         0.9270    2.0180    2.4740 hc        1 MOL     -0.078999
    104 H45         0.5040    4.2850    3.2290 hc        1 MOL      0.085600
    105 H46         1.5520    3.4610    4.4620 hc        1 MOL      0.085600
    106 H47         1.7090    1.3150    4.7490 hc        1 MOL      0.072720
    107 H48         0.0500    0.8960    5.0840 hc        1 MOL      0.072720
    108 H49         0.9300    0.1070    3.7390 hc        1 MOL      0.072720
    109 H50        -0.2430    4.9380    5.3540 hc        1 MOL      0.115981
    110 H51        -1.4280    3.7380    4.8230 hc        1 MOL      0.115981
    111 H52        -0.0170    3.4370    6.0200 hc        1 MOL      0.115981
    112 N10        -2.0030   -0.4680    2.8050 n         1 MOL     -0.026446
    113 C35        -2.1920   -1.8910    2.3840 c3        1 MOL     -0.210344
    114 C36        -3.7440   -2.1520    2.2210 c         1 MOL      0.569168
    115 O17        -4.1960   -3.2460    1.9800 o         1 MOL     -0.583846
    116 C37        -1.5740   -2.8260    3.3580 c3        1 MOL      0.334468
    117 C38        -1.8770   -2.7550    4.8940 c3        1 MOL     -0.289772
    118 O18        -0.1780   -2.6340    3.3520 oh        1 MOL     -0.586620
    119 H53        -2.3390   -0.3550    3.7500 hn        1 MOL      0.166627
    120 H54        -1.6600   -1.9960    1.4450 h1        1 MOL      0.057990
    121 H55        -1.7430   -3.8490    3.0060 h1        1 MOL      0.041425
    122 H56         0.1060   -2.8460    2.4570 ho        1 MOL      0.307071
    123 H57        -1.5950   -1.7930    5.3270 hc        1 MOL      0.072478
    124 H58        -2.9330   -2.9500    5.0850 hc        1 MOL      0.072478
    125 H59        -1.3260   -3.4780    5.4940 hc        1 MOL      0.072478
    126 N11        -4.5680   -1.1040    2.2510 n         1 MOL     -0.248317
    127 C39        -5.9700   -1.0820    1.8980 c3        1 MOL     -0.058624
    128 C40        -6.1010   -1.1740    0.4100 c         1 MOL      0.441688
    129 O19        -5.3760   -0.3840   -0.2050 o         1 MOL     -0.443574
    130 C41        -6.6360    0.2340    2.3780 c3        1 MOL      0.387234
    131 C42        -8.0620    0.4290    1.7680 c3        1 MOL     -0.475726
    132 O20        -6.8780    0.1320    3.7680 oh        1 MOL     -0.642953
    133 H60        -4.1980   -0.2090    2.5600 hn        1 MOL      0.112937
    134 H61        -6.4360   -1.9120    2.4130 h1        1 MOL      0.090752
    135 H62        -6.0200    1.1110    2.1880 h1        1 MOL      0.061016
    136 H63        -7.0860    1.0130    4.0840 ho        1 MOL      0.398781
    137 H64        -8.4760    1.3080    2.2750 hc        1 MOL      0.114368
    138 H65        -8.0720    0.7290    0.7230 hc        1 MOL      0.114368
    139 H66        -8.6660   -0.4420    2.0160 hc        1 MOL      0.114368
    140 N12        -6.9260   -2.1260   -0.0380 n         1 MOL     -0.461045
    141 C43        -7.2010   -2.5850   -1.4520 c3        1 MOL      0.162699
    142 C44        -6.0480   -2.3180   -2.3720 c         1 MOL      0.534599
    143 O21        -6.2360   -1.9260   -3.5070 o         1 MOL     -0.493451
    144 C45        -8.5000   -1.9100   -1.9770 c3        1 MOL     -0.304695
    145 C46        -9.7770   -1.9580   -1.1600 c3        1 MOL      0.107880
    146 C47       -10.4290   -3.3240   -0.9270 c3        1 MOL      0.030172
    147 C48       -11.6120   -3.3960   -0.0020 c3        1 MOL     -0.028432
    148 N13       -12.2960   -4.7230    0.0030 n4        1 MOL     -0.051509
    149 H67        -7.5330   -2.6590    0.5630 hn        1 MOL      0.276317
    150 H68        -7.2910   -3.6690   -1.4490 h1        1 MOL      0.038990
    151 H69        -8.7160   -2.2740   -2.9740 hc        1 MOL      0.114206
    152 H70        -8.3450   -0.8390   -2.1390 hc        1 MOL      0.114206
    153 H71       -10.5210   -1.3810   -1.7070 hc        1 MOL      0.007715
    154 H72        -9.7670   -1.3840   -0.2290 hc        1 MOL      0.007715
    155 H73        -9.6620   -4.0320   -0.6320 hc        1 MOL      0.004248
    156 H74       -10.8130   -3.6020   -1.9020 hc        1 MOL      0.004248
    157 H75       -12.3520   -2.6880   -0.3650 hx        1 MOL      0.065928
    158 H76       -11.1670   -3.1390    0.9640 hx        1 MOL      0.065928
    159 H77       -12.7160   -5.1240   -0.8230 hn        1 MOL      0.177751
    160 H78       -11.6860   -5.4660    0.3110 hn        1 MOL      0.177751
    161 H79       -13.0710   -4.6580    0.6530 hn        1 MOL      0.177751
    162 N14        -4.8210   -2.6640   -1.9230 n         1 MOL     -0.653082
    163 C49        -3.5620   -2.2340   -2.4300 c3        1 MOL      0.383469
    164 C50        -2.3460   -2.3930   -1.4560 c         1 MOL      0.404972
    165 O22        -1.9060   -1.3130   -0.9950 o         1 MOL     -0.540728
    166 C51        -3.2900   -2.6620   -3.8210 c3        1 MOL     -0.073256
    167 C52        -1.9150   -2.2430   -4.3630 c3        1 MOL      0.002346
    168 C53        -1.8550   -0.7120   -4.4310 c         1 MOL      0.664187
    169 O23        -1.1720   -0.0940   -3.5740 o         1 MOL     -0.657244
    170 O24        -2.4830   -0.1370   -5.3150 o         1 MOL     -0.657244
    171 H80        -4.8820   -2.9860   -0.9710 hn        1 MOL      0.306789
    172 H81        -3.6800   -1.1510   -2.5240 h1        1 MOL      0.049183
    173 H82        -4.0830   -2.2770   -4.4630 hc        1 MOL      0.009472
    174 H83        -3.3100   -3.7550   -3.8600 hc        1 MOL      0.009472
    175 H84        -1.8090   -2.7000   -5.3450 hc        1 MOL     -0.024844
    176 H85        -1.0840   -2.5720   -3.7420 hc        1 MOL     -0.024844
    177 N15        -1.7770   -3.5860   -1.0940 n         1 MOL     -0.312291
    178 C54        -1.9220   -4.8820   -1.7010 c3        1 MOL     -0.097999
    179 H86        -2.9790   -5.0820   -1.8800 h1        1 MOL      0.055343
    180 H87        -1.3830   -4.9030   -2.6470 h1        1 MOL      0.055343
    181 H88        -1.5170   -5.6440   -1.0340 h1        1 MOL      0.055343
    182 H89        -0.9990   -3.4240   -0.4710 hn        1 MOL      0.322100
    183 Ca1         0.1800    0.2970   -1.5030 Ca        1 MOL      1.637829
    184 O25         1.5560   -1.0100   -3.5630 oh        1 MOL     -1.023582
    185 H90         1.8580   -0.3040   -4.1190 ho        1 MOL      0.467678
    186 H91         1.5460   -1.7890   -4.1270 ho        1 MOL      0.467678
    187 O26        -2.1180    1.7230   -1.4030 oh        1 MOL     -1.023582
    188 H92        -2.8290    1.4690   -1.9790 ho        1 MOL      0.467678
    189 H93        -2.3760    2.5620   -1.0430 ho        1 MOL      0.467678
@<TRIPOS>BOND
     1    1    2 1   
     2    1    4 1   
     3    1    5 1   
     4    1    6 1   
     5    2    3 2   
     6    2    7 1   
     7    7    8 1   
     8    7   15 1   
     9    8    9 1   
    10    8   11 1   
    11    8   16 1   
    12    9   10 2   
    13    9   19 1   
    14   11   12 1   
    15   11   17 1   
    16   11   18 1   
    17   12   13 1   
    18   12   14 1   
    19   19   20 1   
    20   19   28 1   
    21   20   21 1   
    22   20   23 1   
    23   20   29 1   
    24   21   22 2   
    25   21   41 1   
    26   23   24 1   
    27   23   30 1   
    28   23   31 1   
    29   24   25 1   
    30   24   32 1   
    31   24   33 1   
    32   25   26 1   
    33   25   34 1   
    34   25   35 1   
    35   26   27 1   
    36   26   36 1   
    37   26   37 1   
    38   27   38 1   
    39   27   39 1   
    40   27   40 1   
    41   41   42 1   
    42   41   49 1   
    43   42   43 1   
    44   42   45 1   
    45   42   50 1   
    46   43   44 2   
    47   43   53 1   
    48   45   46 1   
    49   45   51 1   
    50   45   52 1   
    51   46   47 1   
    52   46   48 1   
    53   53   54 1   
    54   53   57 1   
    55   54   55 1   
    56   54   58 1   
    57   54   59 1   
    58   55   56 2   
    59   55   60 1   
    60   60   61 1   
    61   60   68 1   
    62   61   62 1   
    63   61   64 1   
    64   61   69 1   
    65   62   63 2   
    66   62   72 1   
    67   64   65 1   
    68   64   70 1   
    69   64   71 1   
    70   65   66 1   
    71   65   67 1   
    72   72   73 1   
    73   72   76 1   
    74   73   74 1   
    75   73   77 1   
    76   73   78 1   
    77   74   75 2   
    78   74   79 1   
    79   79   80 1   
    80   79   86 1   
    81   80   81 1   
    82   80   83 1   
    83   80   87 1   
    84   81   82 2   
    85   81   93 1   
    86   83   84 1   
    87   83   85 1   
    88   83   88 1   
    89   84   90 1   
    90   84   91 1   
    91   84   92 1   
    92   85   89 1   
    93   93   94 1   
    94   93  101 1   
    95   94   95 1   
    96   94   97 1   
    97   94  102 1   
    98   95   96 2   
    99   95  112 1   
   100   97   98 1   
   101   97   99 1   
   102   97  103 1   
   103   98  100 1   
   104   98  104 1   
   105   98  105 1   
   106   99  106 1   
   107   99  107 1   
   108   99  108 1   
   109  100  109 1   
   110  100  110 1   
   111  100  111 1   
   112  112  113 1   
   113  112  119 1   
   114  113  114 1   
   115  113  116 1   
   116  113  120 1   
   117  114  115 2   
   118  114  126 1   
   119  116  117 1   
   120  116  118 1   
   121  116  121 1   
   122  117  123 1   
   123  117  124 1   
   124  117  125 1   
   125  118  122 1   
   126  126  127 1   
   127  126  133 1   
   128  127  128 1   
   129  127  130 1   
   130  127  134 1   
   131  128  129 2   
   132  128  140 1   
   133  130  131 1   
   134  130  132 1   
   135  130  135 1   
   136  131  137 1   
   137  131  138 1   
   138  131  139 1   
   139  132  136 1   
   140  140  141 1   
   141  140  149 1   
   142  141  142 1   
   143  141  144 1   
   144  141  150 1   
   145  142  143 2   
   146  142  162 1   
   147  144  145 1   
   148  144  151 1   
   149  144  152 1   
   150  145  146 1   
   151  145  153 1   
   152  145  154 1   
   153  146  147 1   
   154  146  155 1   
   155  146  156 1   
   156  147  148 1   
   157  147  157 1   
   158  147  158 1   
   159  148  159 1   
   160  148  160 1   
   161  148  161 1   
   162  162  163 1   
   163  162  171 1   
   164  163  164 1   
   165  163  166 1   
   166  163  172 1   
   167  164  165 2   
   168  164  177 1   
   169  166  167 1   
   170  166  173 1   
   171  166  174 1   
   172  167  168 1   
   173  167  175 1   
   174  167  176 1   
   175  168  169 1   
   176  168  170 1   
   177  177  178 1   
   178  177  182 1   
   179  178  179 1   
   180  178  180 1   
   181  178  181 1   
   182  184  185 1   
   183  184  186 1   
   184  187  188 1   
   185  187  189 1   
@<TRIPOS>SUBSTRUCTURE
     1 MOL         1 TEMP              0 ****  ****    0 ROOT
