@<TRIPOS>MOLECULE
MOL
  178   175     1     0     0
SMALL
resp


@<TRIPOS>ATOM
      1 C1          3.1070   -3.1720    3.9890 c3        1 MOL     -0.295846
      2 C2          4.0370   -2.0170    3.4780 c         1 MOL      0.580452
      3 O1          3.9050   -1.6130    2.3380 o         1 MOL     -0.467778
      4 H1          2.0700   -2.8390    3.9680 hc        1 MOL      0.074361
      5 H2          3.2220   -4.0440    3.3440 hc        1 MOL      0.074361
      6 H3          3.3830   -3.4360    5.0100 hc        1 MOL      0.074361
      7 N1          5.1290   -1.6700    4.2320 n         1 MOL     -0.493457
      8 C3          6.0990   -0.6850    3.7550 c3        1 MOL      0.077471
      9 C4          6.7910   -1.1630    2.4560 c         1 MOL      0.381625
     10 O2          6.8250   -0.3930    1.5620 o         1 MOL     -0.334407
     11 C5          7.2090   -0.3600    4.8740 c3        1 MOL     -0.203495
     12 C6          8.1850    0.6110    4.2330 c         1 MOL      0.632434
     13 O3          7.8460    1.8390    4.1550 o         1 MOL     -0.680622
     14 O4          9.2510    0.2510    3.6440 o         1 MOL     -0.680622
     15 H4          5.4940   -2.1900    5.0160 hn        1 MOL      0.285805
     16 H5          5.4940    0.2020    3.5530 h1        1 MOL      0.101261
     17 H6          7.6920   -1.3000    5.1300 hc        1 MOL      0.015937
     18 H7          6.7600   -0.0370    5.8210 hc        1 MOL      0.015937
     19 N2          7.1890   -2.4410    2.3070 n         1 MOL     -0.555053
     20 C7          7.7790   -3.0820    1.1880 c3        1 MOL      0.398668
     21 C8          7.0490   -2.7720   -0.1740 c         1 MOL      0.519867
     22 O5          7.7550   -2.5990   -1.1500 o         1 MOL     -0.548651
     23 C9          9.2110   -2.7190    1.1070 c3        1 MOL     -0.468224
     24 H8          7.1230   -2.9390    3.1780 hn        1 MOL      0.275852
     25 H9          7.7420   -4.1640    1.2000 h1        1 MOL     -0.030925
     26 H10         9.6170   -2.9180    2.1010 hc        1 MOL      0.123401
     27 H11         9.7770   -3.2770    0.3550 hc        1 MOL      0.123401
     28 H12         9.2590   -1.6490    0.9170 hc        1 MOL      0.123401
     29 N3          5.7340   -2.6440   -0.2970 n         1 MOL     -0.613682
     30 C10         5.0590   -2.2250   -1.5390 c3        1 MOL      0.295706
     31 C11         5.3960   -0.7880   -2.0630 c         1 MOL      0.288439
     32 O6          5.0200   -0.4410   -3.1850 o         1 MOL     -0.460688
     33 C12         5.2170   -3.3080   -2.6130 c3        1 MOL     -0.154042
     34 C13         4.2570   -3.2570   -3.8320 c         1 MOL      0.650363
     35 O7          4.7710   -3.2190   -4.9550 o         1 MOL     -0.698632
     36 O8          3.0640   -3.3380   -3.5920 o         1 MOL     -0.698632
     37 H13         5.2410   -2.5940    0.5770 hn        1 MOL      0.253791
     38 H14         3.9940   -2.1950   -1.3220 h1        1 MOL      0.039460
     39 H15         5.1020   -4.2930   -2.1350 hc        1 MOL      0.023195
     40 H16         6.2320   -3.3700   -2.9980 hc        1 MOL      0.023195
     41 N4          5.9460    0.1040   -1.2420 n         1 MOL      0.066549
     42 C14         6.2390    1.5140   -1.5370 c3        1 MOL     -0.213573
     43 C15         5.0780    2.3340   -2.0850 c         1 MOL      0.723713
     44 O9          5.3230    3.3400   -2.8050 o         1 MOL     -0.616220
     45 H17         6.1780   -0.2940   -0.3390 hn        1 MOL      0.036654
     46 H18         7.0680    1.5160   -2.2410 h1        1 MOL      0.098259
     47 H19         6.4850    1.9430   -0.5700 h1        1 MOL      0.098259
     48 N5          3.7800    2.0210   -1.8030 n         1 MOL     -0.437848
     49 C16         2.6490    2.6740   -2.4620 c3        1 MOL     -0.174881
     50 C17         2.3360    4.0420   -1.7420 c         1 MOL      0.505022
     51 O10         2.1730    4.0650   -0.5250 o         1 MOL     -0.452753
     52 C18         1.4500    1.6960   -2.4050 c3        1 MOL     -0.150841
     53 C19         1.6800    0.3210   -3.0680 c         1 MOL      0.543068
     54 N6          1.9910    0.3790   -4.3880 n         1 MOL     -0.752650
     55 O11         1.8400   -0.7120   -2.4210 o         1 MOL     -0.536539
     56 H20         3.6680    1.0870   -1.4280 hn        1 MOL      0.237372
     57 H21         2.8810    2.8370   -3.5080 h1        1 MOL      0.114520
     58 H22         0.5770    2.1340   -2.8780 hc        1 MOL      0.118390
     59 H23         1.2420    1.4650   -1.3610 hc        1 MOL      0.118390
     60 H24         1.9970    1.2250   -4.9460 hn        1 MOL      0.360664
     61 H25         2.2580   -0.5080   -4.7880 hn        1 MOL      0.360664
     62 N7          2.4000    5.1740   -2.4530 n         1 MOL     -0.276036
     63 C20         2.0680    6.5130   -1.8830 c3        1 MOL     -0.291411
     64 C21         0.5510    6.6720   -1.6670 c         1 MOL      0.651997
     65 O12        -0.2770    5.9390   -2.2420 o         1 MOL     -0.508121
     66 H26         2.3170    5.1150   -3.4560 hn        1 MOL      0.254998
     67 H27         2.2860    7.2650   -2.6380 h1        1 MOL      0.142287
     68 H28         2.5890    6.7220   -0.9560 h1        1 MOL      0.142287
     69 N8          0.0990    7.5740   -0.7310 n         1 MOL     -0.586188
     70 C22        -1.3850    7.8120   -0.3380 c3        1 MOL     -0.118813
     71 C23        -1.9700    6.7150    0.5090 c         1 MOL      0.441203
     72 O13        -2.9650    6.9270    1.2610 o         1 MOL     -0.569052
     73 C24        -1.6260    9.1840    0.2390 c3        1 MOL      0.515300
     74 C25        -0.8870    9.4090    1.6400 c3        1 MOL     -0.437018
     75 O14        -1.3190   10.1740   -0.7550 oh        1 MOL     -0.647053
     76 H29         0.8170    8.1080   -0.2600 hn        1 MOL      0.285386
     77 H30        -1.9250    7.8250   -1.2850 h1        1 MOL      0.127473
     78 H31        -2.6820    9.3370    0.4540 h1        1 MOL      0.023531
     79 H32        -0.3660   10.1510   -0.9000 ho        1 MOL      0.372148
     80 H33         0.1210    9.0000    1.5840 hc        1 MOL      0.109136
     81 H34        -0.9240   10.4820    1.8270 hc        1 MOL      0.109136
     82 H35        -1.3900    8.8560    2.4290 hc        1 MOL      0.109136
     83 N9         -1.4990    5.4510    0.3090 n         1 MOL     -0.096865
     84 C26        -2.0570    4.2100    0.9000 c3        1 MOL     -0.071051
     85 C27        -2.0490    2.9570   -0.1070 c         1 MOL      0.433208
     86 O15        -1.5140    3.0700   -1.2290 o         1 MOL     -0.438017
     87 C28        -1.2690    3.8390    2.2400 c3        1 MOL      0.197793
     88 C29         0.1500    3.4520    2.1420 c3        1 MOL     -0.115565
     89 C30        -1.3850    4.9160    3.3260 c3        1 MOL     -0.478250
     90 C31         0.8700    2.9380    3.3920 c3        1 MOL     -0.269649
     91 H36        -0.8480    5.4240   -0.4570 hn        1 MOL      0.101690
     92 H37        -3.0620    4.5190    1.1580 h1        1 MOL      0.074785
     93 H38        -1.8420    2.9650    2.5730 hc        1 MOL     -0.019950
     94 H39         0.6970    4.2640    1.6760 hc        1 MOL      0.102070
     95 H40         0.2380    2.6400    1.4190 hc        1 MOL      0.102070
     96 H41        -2.4170    5.2670    3.3150 hc        1 MOL      0.120708
     97 H42        -1.1870    4.3510    4.2330 hc        1 MOL      0.120708
     98 H43        -0.7570    5.7930    3.1580 hc        1 MOL      0.120708
     99 H44         0.9730    3.5350    4.3040 hc        1 MOL      0.080633
    100 H45         0.3950    1.9880    3.6010 hc        1 MOL      0.080633
    101 H46         1.8890    2.7620    3.0380 hc        1 MOL      0.080633
    102 N10        -2.7390    1.9010    0.2630 n         1 MOL     -0.539067
    103 C32        -2.6240    0.6310   -0.4030 c3        1 MOL      0.128433
    104 C33        -3.9220   -0.1430   -0.3920 c         1 MOL      0.478215
    105 O16        -3.9820   -1.3560   -0.1070 o         1 MOL     -0.500174
    106 C34        -1.5310   -0.1560    0.3300 c3        1 MOL     -0.080188
    107 C35        -0.7960   -1.1370   -0.6240 c         1 MOL      0.613694
    108 O17         0.1390   -1.7520   -0.1200 o         1 MOL     -0.720741
    109 O18        -0.9470   -1.2740   -1.8660 o         1 MOL     -0.720741
    110 H47        -3.2290    1.9600    1.1470 hn        1 MOL      0.287596
    111 H48        -2.3180    0.6840   -1.4580 h1        1 MOL      0.057074
    112 H49        -1.9790   -0.7340    1.1470 hc        1 MOL      0.054766
    113 H50        -0.8430    0.5970    0.6970 hc        1 MOL      0.054766
    114 N11        -5.0630    0.5080   -0.6230 n         1 MOL     -0.333555
    115 C36        -6.3850   -0.1040   -0.6410 c3        1 MOL      0.028250
    116 C37        -6.7030   -1.2620    0.3790 c         1 MOL      0.379493
    117 O19        -6.5410   -1.0510    1.6040 o         1 MOL     -0.473840
    118 C38        -7.4280    1.0030   -0.5080 c3        1 MOL     -0.412155
    119 C39        -8.8440    0.4680   -0.4160 ca        1 MOL      0.251516
    120 C40        -9.5030    0.1400   -1.5770 ca        1 MOL     -0.239020
    121 C41        -9.4410    0.2460    0.8070 ca        1 MOL     -0.239020
    122 C42       -10.8150   -0.3060   -1.5180 ca        1 MOL     -0.060378
    123 C43       -10.8210   -0.0920    0.8030 ca        1 MOL     -0.060378
    124 C44       -11.5870   -0.2050   -0.3310 ca        1 MOL     -0.162068
    125 H51        -5.0850    1.4980   -0.8210 hn        1 MOL      0.273222
    126 H52        -6.4570   -0.4630   -1.6680 h1        1 MOL      0.056616
    127 H53        -7.2340    1.6870   -1.3310 hc        1 MOL      0.139888
    128 H54        -7.1970    1.6110    0.3690 hc        1 MOL      0.139888
    129 H55        -8.9560    0.1750   -2.5140 ha        1 MOL      0.141209
    130 H56        -8.9940    0.5870    1.7310 ha        1 MOL      0.141209
    131 H57       -11.3730   -0.5020   -2.4240 ha        1 MOL      0.092798
    132 H58       -11.2580   -0.1270    1.7930 ha        1 MOL      0.092798
    133 H59       -12.6310   -0.4770   -0.4150 ha        1 MOL      0.117230
    134 N12        -7.0240   -2.4950   -0.0370 n         1 MOL     -0.056958
    135 C45        -7.2000   -3.6080    0.8370 c3        1 MOL      0.240881
    136 C46        -6.0290   -3.8260    1.7890 c         1 MOL      0.180445
    137 O20        -6.3110   -4.4510    2.8100 o         1 MOL     -0.523896
    138 C47        -7.3510   -4.8390   -0.0940 c3        1 MOL     -0.289988
    139 C48        -6.6340   -4.4980   -1.4370 c3        1 MOL      0.037328
    140 C49        -6.9010   -2.9960   -1.4130 c3        1 MOL     -0.197942
    141 H60        -8.0980   -3.4980    1.4320 h1        1 MOL      0.023046
    142 H61        -6.9050   -5.6880    0.4230 hc        1 MOL      0.096740
    143 H62        -8.3970   -5.0820   -0.2790 hc        1 MOL      0.096740
    144 H63        -5.5410   -4.6100   -1.3980 hc        1 MOL      0.035902
    145 H64        -7.1240   -5.0490   -2.2390 hc        1 MOL      0.035902
    146 H65        -6.1690   -2.4210   -1.9850 h1        1 MOL      0.076576
    147 H66        -7.9080   -2.9570   -1.8300 h1        1 MOL      0.076576
    148 N13        -4.7910   -3.4840    1.4260 n         1 MOL     -0.002021
    149 C50        -3.5940   -3.9310    2.1550 c3        1 MOL     -0.286641
    150 C51        -3.2640   -2.8800    3.2230 c         1 MOL      0.430068
    151 O21        -2.3850   -3.0690    4.0730 o         1 MOL     -0.541588
    152 C52        -2.3730   -4.0600    1.1890 c3        1 MOL      0.034233
    153 C53        -2.4690   -5.1680    0.1050 c3        1 MOL     -0.234431
    154 C54        -1.2370   -5.0940   -0.8510 c         1 MOL      0.638141
    155 O22        -0.1000   -4.9720   -0.3310 o         1 MOL     -0.726081
    156 O23        -1.3020   -4.9160   -2.0780 o         1 MOL     -0.726081
    157 H67        -4.7100   -3.0020    0.5360 hn        1 MOL      0.276441
    158 H68        -3.7670   -4.9430    2.5160 h1        1 MOL      0.164801
    159 H69        -1.5140   -4.2430    1.8340 hc        1 MOL      0.079984
    160 H70        -2.1600   -3.0860    0.7590 hc        1 MOL      0.079984
    161 H71        -3.3310   -4.8890   -0.4900 hc        1 MOL      0.044122
    162 H72        -2.7210   -6.1700    0.4530 hc        1 MOL      0.044122
    163 N14        -4.0770   -1.8290    3.3330 n         1 MOL     -0.047672
    164 C55        -4.0480   -0.7660    4.3620 c3        1 MOL     -0.234842
    165 H73        -4.7320   -1.0250    5.1700 h1        1 MOL      0.089052
    166 H74        -3.0380   -0.6710    4.7580 h1        1 MOL      0.089052
    167 H75        -4.3540    0.1800    3.9150 h1        1 MOL      0.089052
    168 H76        -4.7550   -1.6640    2.6120 hn        1 MOL      0.111276
    169 Ca1         0.9700   -3.2630   -1.9790 Ca        1 MOL      1.776447
    170 O24         0.2020   -2.5180   -4.3390 oh        1 MOL     -0.789849
    171 H77         0.1290   -2.7860   -5.2500 ho        1 MOL      0.385436
    172 H78         0.2750   -1.5610   -4.3730 ho        1 MOL      0.385436
    173 O25         2.5850   -4.2040    0.0850 oh        1 MOL     -0.789849
    174 H79         2.1630   -4.5410    0.8680 ho        1 MOL      0.385436
    175 H80         3.2630   -4.8380   -0.1260 ho        1 MOL      0.385436
    176 O26         1.7980   -5.5990   -2.7350 oh        1 MOL     -0.789849
    177 H81         1.9380   -6.0160   -3.5820 ho        1 MOL      0.385436
    178 H82         1.7460   -6.3350   -2.1150 ho        1 MOL      0.385436
@<TRIPOS>BOND
     1    1    2 1   
     2    1    4 1   
     3    1    5 1   
     4    1    6 1   
     5    2    3 2   
     6    2    7 1   
     7    7    8 1   
     8    7   15 1   
     9    8    9 1   
    10    8   11 1   
    11    8   16 1   
    12    9   10 2   
    13    9   19 1   
    14   11   12 1   
    15   11   17 1   
    16   11   18 1   
    17   12   13 1   
    18   12   14 1   
    19   19   20 1   
    20   19   24 1   
    21   20   21 1   
    22   20   23 1   
    23   20   25 1   
    24   21   22 2   
    25   21   29 1   
    26   23   26 1   
    27   23   27 1   
    28   23   28 1   
    29   29   30 1   
    30   29   37 1   
    31   30   31 1   
    32   30   33 1   
    33   30   38 1   
    34   31   32 2   
    35   31   41 1   
    36   33   34 1   
    37   33   39 1   
    38   33   40 1   
    39   34   35 1   
    40   34   36 1   
    41   41   42 1   
    42   41   45 1   
    43   42   43 1   
    44   42   46 1   
    45   42   47 1   
    46   43   44 2   
    47   43   48 1   
    48   48   49 1   
    49   48   56 1   
    50   49   50 1   
    51   49   52 1   
    52   49   57 1   
    53   50   51 2   
    54   50   62 1   
    55   52   53 1   
    56   52   58 1   
    57   52   59 1   
    58   53   54 1   
    59   53   55 2   
    60   54   60 1   
    61   54   61 1   
    62   62   63 1   
    63   62   66 1   
    64   63   64 1   
    65   63   67 1   
    66   63   68 1   
    67   64   65 2   
    68   64   69 1   
    69   69   70 1   
    70   69   76 1   
    71   70   71 1   
    72   70   73 1   
    73   70   77 1   
    74   71   72 2   
    75   71   83 1   
    76   73   74 1   
    77   73   75 1   
    78   73   78 1   
    79   74   80 1   
    80   74   81 1   
    81   74   82 1   
    82   75   79 1   
    83   83   84 1   
    84   83   91 1   
    85   84   85 1   
    86   84   87 1   
    87   84   92 1   
    88   85   86 2   
    89   85  102 1   
    90   87   88 1   
    91   87   89 1   
    92   87   93 1   
    93   88   90 1   
    94   88   94 1   
    95   88   95 1   
    96   89   96 1   
    97   89   97 1   
    98   89   98 1   
    99   90   99 1   
   100   90  100 1   
   101   90  101 1   
   102  102  103 1   
   103  102  110 1   
   104  103  104 1   
   105  103  106 1   
   106  103  111 1   
   107  104  105 2   
   108  104  114 1   
   109  106  107 1   
   110  106  112 1   
   111  106  113 1   
   112  107  108 1   
   113  107  109 1   
   114  114  115 1   
   115  114  125 1   
   116  115  116 1   
   117  115  118 1   
   118  115  126 1   
   119  116  117 2   
   120  116  134 1   
   121  118  119 1   
   122  118  127 1   
   123  118  128 1   
   124  119  120 ar  
   125  119  121 ar  
   126  120  122 ar  
   127  120  129 1   
   128  121  123 ar  
   129  121  130 1   
   130  122  124 ar  
   131  122  131 1   
   132  123  124 ar  
   133  123  132 1   
   134  124  133 1   
   135  134  135 1   
   136  134  140 1   
   137  135  136 1   
   138  135  138 1   
   139  135  141 1   
   140  136  137 2   
   141  136  148 1   
   142  138  139 1   
   143  138  142 1   
   144  138  143 1   
   145  139  140 1   
   146  139  144 1   
   147  139  145 1   
   148  140  146 1   
   149  140  147 1   
   150  148  149 1   
   151  148  157 1   
   152  149  150 1   
   153  149  152 1   
   154  149  158 1   
   155  150  151 2   
   156  150  163 1   
   157  152  153 1   
   158  152  159 1   
   159  152  160 1   
   160  153  154 1   
   161  153  161 1   
   162  153  162 1   
   163  154  155 1   
   164  154  156 1   
   165  163  164 1   
   166  163  168 1   
   167  164  165 1   
   168  164  166 1   
   169  164  167 1   
   170  170  171 1   
   171  170  172 1   
   172  173  174 1   
   173  173  175 1   
   174  176  177 1   
   175  176  178 1   
@<TRIPOS>SUBSTRUCTURE
     1 MOL         1 TEMP              0 ****  ****    0 ROOT
