@<TRIPOS>MOLECULE
MOL
  185   180     1     0     0
SMALL
resp


@<TRIPOS>ATOM
      1 C1          4.0640    4.0260    2.0580 c3        1 MOL     -0.417450
      2 C2          5.3280    3.3990    1.4310 c         1 MOL      0.591375
      3 O1          5.2390    2.4710    0.6430 o         1 MOL     -0.497734
      4 H1          3.5400    4.6140    1.3050 hc        1 MOL      0.114689
      5 H2          3.4090    3.2360    2.4220 hc        1 MOL      0.114689
      6 H3          4.3520    4.6720    2.8880 hc        1 MOL      0.114689
      7 N1          6.5470    4.0100    1.5330 n         1 MOL     -0.484474
      8 C3          7.8690    3.6480    0.9410 c3        1 MOL     -0.038558
      9 C4          8.2560    2.2180    1.2500 c         1 MOL      0.495770
     10 O2          9.0710    1.6360    0.5560 o         1 MOL     -0.502193
     11 C5          7.9030    3.8760   -0.5300 c3        1 MOL     -0.036487
     12 C6          7.3840    5.1950   -1.0490 c         1 MOL      0.677859
     13 O3          6.1660    5.3660   -1.3870 o         1 MOL     -0.649651
     14 O4          8.2170    6.1270   -1.2470 o         1 MOL     -0.649651
     15 H4          6.5770    4.8090    2.1510 hn        1 MOL      0.289898
     16 H5          8.6110    4.3220    1.3580 h1        1 MOL      0.092578
     17 H6          7.3310    3.0730   -0.9800 hc        1 MOL      0.034890
     18 H7          8.9150    3.7820   -0.9290 hc        1 MOL      0.034890
     19 N2          7.5970    1.5420    2.2030 n         1 MOL     -0.372677
     20 C7          7.9490    0.1560    2.6970 c3        1 MOL     -0.114478
     21 C8          7.3140   -0.9890    1.8920 c         1 MOL      0.591426
     22 O5          7.4050   -2.1360    2.3300 o         1 MOL     -0.555717
     23 C9          7.5890    0.0920    4.1830 c3        1 MOL      0.245097
     24 C10         6.1240    0.2740    4.7630 c3        1 MOL     -0.155637
     25 C11         6.1430   -0.0140    6.2470 c3        1 MOL      0.037390
     26 C12         7.1660    0.8320    7.0330 c3        1 MOL      0.021708
     27 N3          7.3270    0.2970    8.4410 n4        1 MOL     -0.185272
     28 H8          6.8370    2.0460    2.6330 hn        1 MOL      0.150518
     29 H9          9.0240    0.0290    2.6140 h1        1 MOL      0.126669
     30 H10         8.2700    0.8460    4.5670 hc        1 MOL     -0.040877
     31 H11         7.9150   -0.8850    4.5240 hc        1 MOL     -0.040877
     32 H12         5.4280   -0.4530    4.3300 hc        1 MOL      0.065638
     33 H13         5.7360    1.2950    4.7140 hc        1 MOL      0.065638
     34 H14         6.0870   -1.0860    6.4480 hc        1 MOL      0.028786
     35 H15         5.2350    0.2750    6.7790 hc        1 MOL      0.028786
     36 H16         6.8880    1.8810    7.1090 hx        1 MOL      0.058609
     37 H17         8.1100    0.6950    6.5150 hx        1 MOL      0.058609
     38 H18         7.9700    0.8530    9.0020 hn        1 MOL      0.216552
     39 H19         6.4030    0.2820    8.8450 hn        1 MOL      0.216552
     40 H20         7.6100   -0.6700    8.4650 hn        1 MOL      0.216552
     41 N4          6.6570   -0.7530    0.7420 n         1 MOL     -0.489175
     42 C13         5.7100   -1.5050   -0.0810 c3        1 MOL      0.265490
     43 C14         6.0130   -1.3570   -1.5940 c         1 MOL      0.353674
     44 O6          6.4430   -0.3070   -2.1150 o         1 MOL     -0.447241
     45 C15         4.2160   -1.2620    0.2810 c3        1 MOL     -0.095337
     46 C16         3.2390   -2.2210   -0.3100 c         1 MOL      0.672650
     47 O7          3.0010   -2.2660   -1.5280 o         1 MOL     -0.712688
     48 O8          2.6580   -3.0630    0.4210 o         1 MOL     -0.712688
     49 H21         6.5430    0.2340    0.5730 hn        1 MOL      0.284689
     50 H22         5.8370   -2.5240    0.2570 h1        1 MOL     -0.016802
     51 H23         3.9970   -0.2690   -0.1120 hc        1 MOL      0.028706
     52 H24         4.1180   -1.3100    1.3650 hc        1 MOL      0.028706
     53 N5          5.6490   -2.3570   -2.3190 n         1 MOL     -0.226198
     54 C17         5.9120   -2.5140   -3.7550 c3        1 MOL     -0.402004
     55 C18         4.9730   -1.9160   -4.7980 c         1 MOL      0.661295
     56 O9          5.3850   -1.6680   -5.9170 o         1 MOL     -0.534537
     57 H25         5.2820   -3.2020   -1.8980 hn        1 MOL      0.257980
     58 H26         5.9830   -3.5980   -3.8750 h1        1 MOL      0.157217
     59 H27         6.8930   -2.0670   -3.9030 h1        1 MOL      0.157217
     60 N6          3.7380   -1.5150   -4.2720 n         1 MOL     -0.384076
     61 C19         2.6800   -0.7640   -4.9500 c3        1 MOL     -0.055642
     62 C20         1.8790    0.2000   -4.0630 c         1 MOL      0.520428
     63 O10         1.0880    0.9420   -4.5710 o         1 MOL     -0.514727
     64 C21         1.7160   -1.7070   -5.6890 c3        1 MOL     -0.166463
     65 C22         0.7420   -2.4870   -4.8210 c         1 MOL      0.607106
     66 N7         -0.4950   -2.5190   -5.1810 n         1 MOL     -0.636388
     67 O11         0.9960   -3.1570   -3.8400 o         1 MOL     -0.649112
     68 H28         3.6560   -1.8390   -3.3160 hn        1 MOL      0.193988
     69 H29         3.2150   -0.1240   -5.6530 h1        1 MOL      0.137583
     70 H30         2.3020   -2.5560   -6.0400 hc        1 MOL      0.071671
     71 H31         1.2050   -1.2560   -6.5380 hc        1 MOL      0.071671
     72 H32        -0.8210   -2.0520   -6.0130 hn        1 MOL      0.322614
     73 H33        -0.9690   -3.3750   -4.9130 hn        1 MOL      0.322614
     74 N8          2.1780    0.2320   -2.7830 n         1 MOL     -0.334484
     75 C23         1.8170    1.3600   -1.9200 c3        1 MOL     -0.021244
     76 C24         0.3040    1.6710   -1.7620 c         1 MOL      0.530726
     77 O12        -0.5500    0.8270   -2.0510 o         1 MOL     -0.497348
     78 H34         2.8700   -0.4340   -2.4490 hn        1 MOL      0.283625
     79 H35         2.3190    2.2560   -2.2950 h1        1 MOL      0.085428
     80 H36         2.2870    1.1500   -0.9560 h1        1 MOL      0.085428
     81 N9         -0.0250    2.8930   -1.3310 n         1 MOL     -0.686135
     82 C25        -1.4040    3.2980   -1.2260 c3        1 MOL      0.525272
     83 C26        -2.1120    2.7040   -0.0030 c         1 MOL      0.270450
     84 O13        -1.5200    1.8730    0.7220 o         1 MOL     -0.478878
     85 C27        -1.4470    4.8550   -1.3730 c3        1 MOL     -0.277444
     86 C28        -2.8590    5.3920   -1.3290 ca        1 MOL      0.162131
     87 C29        -3.8030    4.9120   -2.2360 ca        1 MOL     -0.184891
     88 C30        -3.2380    6.2460   -0.3120 ca        1 MOL     -0.184891
     89 C31        -5.0770    5.4650   -2.1680 ca        1 MOL     -0.247906
     90 C32        -4.6030    6.6480   -0.1150 ca        1 MOL     -0.247906
     91 C33        -5.5130    6.3490   -1.1700 ca        1 MOL      0.346444
     92 O14        -6.7950    6.7500   -1.1800 oh        1 MOL     -0.469260
     93 H37         0.6780    3.5760   -1.0760 hn        1 MOL      0.336455
     94 H38        -1.9810    2.9810   -2.0980 h1        1 MOL     -0.004172
     95 H39        -1.0900    5.1570   -2.3560 hc        1 MOL      0.093651
     96 H40        -0.8930    5.4200   -0.6190 hc        1 MOL      0.093651
     97 H41        -3.6300    4.1070   -2.9230 ha        1 MOL      0.146182
     98 H42        -2.4870    6.4920    0.4290 ha        1 MOL      0.146182
     99 H43        -5.7720    5.0810   -2.9030 ha        1 MOL      0.138275
    100 H44        -4.9970    7.2260    0.7110 ha        1 MOL      0.138275
    101 H45        -6.9300    7.2910   -0.3890 ho        1 MOL      0.366175
    102 N10        -3.3260    3.0770    0.2680 n         1 MOL     -0.118565
    103 C34        -4.2640    2.1870    0.9370 c3        1 MOL      0.083124
    104 C35        -4.8700    1.2080   -0.1010 c         1 MOL      0.391740
    105 O15        -4.6470   -0.0240   -0.1120 o         1 MOL     -0.412096
    106 C36        -5.2460    3.0040    1.8480 c3        1 MOL      0.303633
    107 C37        -4.5650    4.0670    2.7430 c3        1 MOL      0.109945
    108 C38        -6.1520    2.0720    2.6500 c3        1 MOL     -0.364530
    109 C39        -3.7660    3.6080    3.9170 c3        1 MOL     -0.218491
    110 H46        -3.6800    3.8470   -0.2710 hn        1 MOL     -0.097884
    111 H47        -3.7850    1.5370    1.6720 h1        1 MOL      0.056143
    112 H48        -5.9180    3.5870    1.2230 hc        1 MOL     -0.141417
    113 H49        -5.3050    4.7080    3.2230 hc        1 MOL     -0.028219
    114 H50        -3.8950    4.6630    2.1360 hc        1 MOL     -0.028219
    115 H51        -6.8760    2.6440    3.2360 hc        1 MOL      0.082355
    116 H52        -6.6360    1.3660    1.9650 hc        1 MOL      0.082355
    117 H53        -5.5900    1.3770    3.2770 hc        1 MOL      0.082355
    118 H54        -3.2660    4.4400    4.4190 hc        1 MOL      0.052494
    119 H55        -4.5040    3.1110    4.5540 hc        1 MOL      0.052494
    120 H56        -3.0710    2.8290    3.6070 hc        1 MOL      0.052494
    121 N11        -5.6270    1.8170   -1.0060 n         1 MOL     -0.447721
    122 C40        -6.4180    1.0880   -2.0380 c3        1 MOL     -0.078281
    123 C41        -7.5900    0.3130   -1.3920 c         1 MOL      0.320662
    124 O16        -8.0990   -0.6480   -1.9010 o         1 MOL     -0.453877
    125 C42        -7.0340    2.0140   -3.1370 c3        1 MOL      0.264854
    126 O17        -6.0450    2.7610   -3.7640 oh        1 MOL     -0.565350
    127 H57        -5.6620    2.8270   -0.9230 hn        1 MOL      0.383310
    128 H58        -5.8740    0.2730   -2.5080 h1        1 MOL      0.131412
    129 H59        -7.8010    2.6320   -2.6630 h1        1 MOL      0.027520
    130 H60        -7.4380    1.3550   -3.9010 h1        1 MOL      0.027520
    131 H61        -5.2810    2.2150   -3.9830 ho        1 MOL      0.390952
    132 N12        -8.0080    0.8200   -0.2130 n         1 MOL     -0.274147
    133 C43        -8.9180    0.2800    0.8030 c3        1 MOL      0.268737
    134 C44        -8.4710   -1.0750    1.3300 c         1 MOL      0.479838
    135 O18        -9.3460   -1.9140    1.6860 o         1 MOL     -0.553389
    136 C45       -10.4160    0.3270    0.3370 c3        1 MOL     -0.372306
    137 H62        -7.6300    1.7100    0.0870 hn        1 MOL      0.171536
    138 H63        -8.8730    0.8980    1.7040 h1        1 MOL      0.026995
    139 H64       -11.0060    0.3820    1.2490 hc        1 MOL      0.102713
    140 H65       -10.6300    1.2480   -0.1980 hc        1 MOL      0.102713
    141 H66       -10.7200   -0.5150   -0.2830 hc        1 MOL      0.102713
    142 N13        -7.1890   -1.3920    1.2280 n         1 MOL     -0.531915
    143 C46        -6.6670   -2.7240    1.3360 c3        1 MOL      0.490475
    144 C47        -5.3510   -2.6990    2.0830 c         1 MOL      0.279126
    145 O19        -4.7070   -1.7050    2.2920 o         1 MOL     -0.406978
    146 C48        -6.4870   -3.2640   -0.0220 c3        1 MOL     -0.217265
    147 H67        -6.5000   -0.7710    0.8330 hn        1 MOL      0.210611
    148 H68        -7.3700   -3.4010    1.8370 h1        1 MOL     -0.028349
    149 H69        -5.9680   -2.5200   -0.6240 hc        1 MOL      0.060813
    150 H70        -5.7640   -4.0790   -0.0570 hc        1 MOL      0.060813
    151 H71        -7.4090   -3.6300   -0.4620 hc        1 MOL      0.060813
    152 N14        -4.9320   -3.9290    2.4910 n         1 MOL     -0.244744
    153 C49        -3.7530   -4.2150    3.3530 c3        1 MOL     -0.232967
    154 C50        -3.8220   -3.6710    4.7510 c         1 MOL      0.437051
    155 O20        -2.8510   -3.4290    5.4230 o         1 MOL     -0.478092
    156 C51        -2.4310   -4.0380    2.5730 c3        1 MOL      0.347841
    157 C52        -2.4210   -4.9890    1.4220 c3        1 MOL     -0.005913
    158 C53        -1.1350   -4.9760    0.5790 c         1 MOL      0.581329
    159 O21        -1.2570   -5.2380   -0.6720 o         1 MOL     -0.721107
    160 O22         0.0170   -4.6340    1.0130 o         1 MOL     -0.721107
    161 H72        -5.5120   -4.7180    2.2540 hn        1 MOL      0.203444
    162 H73        -3.7980   -5.3010    3.4550 h1        1 MOL      0.085778
    163 H74        -1.5790   -4.1950    3.2460 hc        1 MOL     -0.031667
    164 H75        -2.3210   -2.9970    2.2650 hc        1 MOL     -0.031667
    165 H76        -3.2610   -4.9000    0.7280 hc        1 MOL     -0.034834
    166 H77        -2.4580   -5.9830    1.8570 hc        1 MOL     -0.034834
    167 N15        -5.0720   -3.3610    5.2070 n         1 MOL     -0.209962
    168 C54        -5.4130   -2.4750    6.2590 c3        1 MOL     -0.197888
    169 H78        -6.4260   -2.1030    6.1060 h1        1 MOL      0.092103
    170 H79        -5.3610   -3.0020    7.2110 h1        1 MOL      0.092103
    171 H80        -4.7170   -1.6370    6.2690 h1        1 MOL      0.092103
    172 H81        -5.8120   -3.6810    4.5930 hn        1 MOL      0.167539
    173 Ca1         1.1470   -4.3000   -1.5440 Ca        1 MOL      1.756612
    174 O23        -0.0150   -1.9770   -0.9250 oh        1 MOL     -0.851941
    175 H82        -0.6850   -1.5830   -0.3620 ho        1 MOL      0.423531
    176 H83         0.5610   -1.2460   -1.1470 ho        1 MOL      0.423531
    177 O24         1.2890   -6.7280   -0.5060 oh        1 MOL     -0.851941
    178 H84         0.9520   -6.5950    0.3730 ho        1 MOL      0.423531
    179 H85         1.5810   -7.6320   -0.5170 ho        1 MOL      0.423531
    180 O25         0.0680   -5.8930   -3.3230 oh        1 MOL     -0.851941
    181 H86         0.3690   -6.4490   -4.0480 ho        1 MOL      0.423531
    182 H87        -0.7730   -5.5480   -3.6270 ho        1 MOL      0.423531
    183 O26         3.3220   -5.4840   -2.5990 oh        1 MOL     -0.851941
    184 H88         2.9670   -6.2140   -3.1100 ho        1 MOL      0.423531
    185 H89         4.2680   -5.5510   -2.7200 ho        1 MOL      0.423531
@<TRIPOS>BOND
     1    1    2 1   
     2    1    4 1   
     3    1    5 1   
     4    1    6 1   
     5    2    3 2   
     6    2    7 1   
     7    7    8 1   
     8    7   15 1   
     9    8    9 1   
    10    8   11 1   
    11    8   16 1   
    12    9   10 2   
    13    9   19 1   
    14   11   12 1   
    15   11   17 1   
    16   11   18 1   
    17   12   13 1   
    18   12   14 1   
    19   19   20 1   
    20   19   28 1   
    21   20   21 1   
    22   20   23 1   
    23   20   29 1   
    24   21   22 2   
    25   21   41 1   
    26   23   24 1   
    27   23   30 1   
    28   23   31 1   
    29   24   25 1   
    30   24   32 1   
    31   24   33 1   
    32   25   26 1   
    33   25   34 1   
    34   25   35 1   
    35   26   27 1   
    36   26   36 1   
    37   26   37 1   
    38   27   38 1   
    39   27   39 1   
    40   27   40 1   
    41   41   42 1   
    42   41   49 1   
    43   42   43 1   
    44   42   45 1   
    45   42   50 1   
    46   43   44 2   
    47   43   53 1   
    48   45   46 1   
    49   45   51 1   
    50   45   52 1   
    51   46   47 1   
    52   46   48 1   
    53   53   54 1   
    54   53   57 1   
    55   54   55 1   
    56   54   58 1   
    57   54   59 1   
    58   55   56 2   
    59   55   60 1   
    60   60   61 1   
    61   60   68 1   
    62   61   62 1   
    63   61   64 1   
    64   61   69 1   
    65   62   63 2   
    66   62   74 1   
    67   64   65 1   
    68   64   70 1   
    69   64   71 1   
    70   65   66 1   
    71   65   67 2   
    72   66   72 1   
    73   66   73 1   
    74   74   75 1   
    75   74   78 1   
    76   75   76 1   
    77   75   79 1   
    78   75   80 1   
    79   76   77 2   
    80   76   81 1   
    81   81   82 1   
    82   81   93 1   
    83   82   83 1   
    84   82   85 1   
    85   82   94 1   
    86   83   84 2   
    87   83  102 1   
    88   85   86 1   
    89   85   95 1   
    90   85   96 1   
    91   86   87 ar  
    92   86   88 ar  
    93   87   89 ar  
    94   87   97 1   
    95   88   90 ar  
    96   88   98 1   
    97   89   91 ar  
    98   89   99 1   
    99   90   91 ar  
   100   90  100 1   
   101   91   92 1   
   102   92  101 1   
   103  102  103 1   
   104  102  110 1   
   105  103  104 1   
   106  103  106 1   
   107  103  111 1   
   108  104  105 2   
   109  104  121 1   
   110  106  107 1   
   111  106  108 1   
   112  106  112 1   
   113  107  109 1   
   114  107  113 1   
   115  107  114 1   
   116  108  115 1   
   117  108  116 1   
   118  108  117 1   
   119  109  118 1   
   120  109  119 1   
   121  109  120 1   
   122  121  122 1   
   123  121  127 1   
   124  122  123 1   
   125  122  125 1   
   126  122  128 1   
   127  123  124 2   
   128  123  132 1   
   129  125  126 1   
   130  125  129 1   
   131  125  130 1   
   132  126  131 1   
   133  132  133 1   
   134  132  137 1   
   135  133  134 1   
   136  133  136 1   
   137  133  138 1   
   138  134  135 2   
   139  134  142 1   
   140  136  139 1   
   141  136  140 1   
   142  136  141 1   
   143  142  143 1   
   144  142  147 1   
   145  143  144 1   
   146  143  146 1   
   147  143  148 1   
   148  144  145 2   
   149  144  152 1   
   150  146  149 1   
   151  146  150 1   
   152  146  151 1   
   153  152  153 1   
   154  152  161 1   
   155  153  154 1   
   156  153  156 1   
   157  153  162 1   
   158  154  155 2   
   159  154  167 1   
   160  156  157 1   
   161  156  163 1   
   162  156  164 1   
   163  157  158 1   
   164  157  165 1   
   165  157  166 1   
   166  158  159 1   
   167  158  160 1   
   168  167  168 1   
   169  167  172 1   
   170  168  169 1   
   171  168  170 1   
   172  168  171 1   
   173  174  175 1   
   174  174  176 1   
   175  177  178 1   
   176  177  179 1   
   177  180  181 1   
   178  180  182 1   
   179  183  184 1   
   180  183  185 1   
@<TRIPOS>SUBSTRUCTURE
     1 MOL         1 TEMP              0 ****  ****    0 ROOT
