@<TRIPOS>MOLECULE
MOL
  192   187     1     0     0
SMALL
resp


@<TRIPOS>ATOM
      1 C1          4.7490    5.0530   -2.3930 c3        1 MOL     -0.383385
      2 C2          5.2710    3.8590   -1.5660 c         1 MOL      0.893788
      3 O1          4.5710    3.3600   -0.6670 o         1 MOL     -0.656378
      4 H1          5.3120    5.9490   -2.1310 hc        1 MOL      0.089717
      5 H2          4.8740    4.8430   -3.4550 hc        1 MOL      0.089717
      6 H3          3.6930    5.2130   -2.1760 hc        1 MOL      0.089717
      7 N1          6.4790    3.3340   -1.9740 n         1 MOL     -0.832607
      8 C3          7.0200    2.0350   -1.5570 c3        1 MOL      0.491045
      9 C4          5.9610    0.9170   -1.5410 c         1 MOL     -0.023239
     10 O2          5.4210    0.5510   -0.4680 o         1 MOL     -0.620842
     11 C5          7.8760    2.2070   -0.2710 c3        1 MOL     -0.140685
     12 C6          7.4500    3.0670    0.8900 c         1 MOL      0.744748
     13 O3          6.4590    2.7620    1.6060 o         1 MOL     -0.730246
     14 O4          8.0900    4.0750    1.1530 o         1 MOL     -0.730246
     15 H4          6.9730    3.8150   -2.7070 hn        1 MOL      0.339840
     16 H5          7.7570    1.7310   -2.2950 h1        1 MOL      0.026249
     17 H6          8.8510    2.4960   -0.6640 hc        1 MOL      0.022055
     18 H7          7.9910    1.2020    0.1480 hc        1 MOL      0.022055
     19 N2          5.5800    0.4880   -2.7110 n         1 MOL     -0.250657
     20 C7          4.6610   -0.5820   -3.1070 c3        1 MOL     -0.054629
     21 C8          5.1330   -1.9830   -2.6590 c         1 MOL      0.496330
     22 O5          4.9360   -2.9220   -3.4010 o         1 MOL     -0.558575
     23 C9          3.2340   -0.1550   -2.7660 c3        1 MOL      0.115472
     24 C10         2.2480   -1.3380   -2.9280 c3        1 MOL      0.062786
     25 C11         2.7660    1.0910   -3.5500 c3        1 MOL     -0.407828
     26 C12         1.9230   -1.7880   -4.3430 c3        1 MOL     -0.169011
     27 H8          6.2110    0.8520   -3.4170 hn        1 MOL      0.245115
     28 H9          4.7050   -0.6220   -4.2000 h1        1 MOL      0.097665
     29 H10         3.1230    0.1270   -1.7120 hc        1 MOL      0.147652
     30 H11         1.3300   -1.0800   -2.4140 hc        1 MOL      0.022922
     31 H12         2.6230   -2.2030   -2.3820 hc        1 MOL      0.022922
     32 H13         1.7030    1.2140   -3.3350 hc        1 MOL      0.090498
     33 H14         3.2250    1.9860   -3.1130 hc        1 MOL      0.090498
     34 H15         2.8980    0.9860   -4.6210 hc        1 MOL      0.090498
     35 H16         1.2310   -2.6330   -4.3420 hc        1 MOL      0.025277
     36 H17         1.6070   -0.9640   -4.9870 hc        1 MOL      0.025277
     37 H18         2.8920   -2.0070   -4.7980 hc        1 MOL      0.025277
     38 N3          5.9920   -2.1370   -1.6230 n         1 MOL     -0.293646
     39 C13         6.8320   -3.2620   -1.2620 c3        1 MOL      0.067188
     40 C14         6.1190   -4.5760   -1.2090 c         1 MOL      0.531121
     41 O6          6.6770   -5.6430   -1.6020 o         1 MOL     -0.609999
     42 C15         7.5440   -3.0320    0.0780 c3        1 MOL     -0.317287
     43 C16         8.1390   -1.6810    0.4010 c         1 MOL      0.872601
     44 O7          8.5890   -0.9770   -0.5450 o         1 MOL     -0.733682
     45 O8          8.4520   -1.2900    1.5370 o         1 MOL     -0.733682
     46 H19         6.1610   -1.3210   -1.0480 hn        1 MOL      0.308707
     47 H20         7.6210   -3.3650   -1.9960 h1        1 MOL      0.045046
     48 H21         8.3820   -3.7140    0.1050 hc        1 MOL      0.080633
     49 H22         6.8980   -3.3840    0.8790 hc        1 MOL      0.080633
     50 N4          4.8810   -4.6930   -0.7260 n         1 MOL     -0.359276
     51 C17         4.2050   -3.8190    0.1860 c3        1 MOL      0.059337
     52 C18         2.9980   -4.4860    0.9030 c         1 MOL      0.642172
     53 O9          2.7950   -5.6810    0.6310 o         1 MOL     -0.611424
     54 H23         4.4270   -5.5960   -0.7080 hn        1 MOL      0.247382
     55 H24         3.7650   -3.0360   -0.4250 h1        1 MOL      0.024034
     56 H25         4.7610   -3.4820    1.0560 h1        1 MOL      0.024034
     57 N5          2.1670   -3.8520    1.6750 n         1 MOL     -0.542586
     58 C19         2.1060   -2.5360    2.2210 c3        1 MOL      0.321915
     59 C20         2.1430   -1.4180    1.1790 c         1 MOL      0.379653
     60 O10         3.2080   -0.8790    0.8770 o         1 MOL     -0.556381
     61 C21         3.2620   -2.4300    3.2270 c3        1 MOL     -0.462957
     62 C22         3.3590   -3.5360    4.3020 c         1 MOL      0.759246
     63 O11         4.5170   -3.9440    4.5960 o         1 MOL     -0.723178
     64 O12         2.3710   -3.9890    4.8980 o         1 MOL     -0.723178
     65 H26         1.4490   -4.4620    2.0560 hn        1 MOL      0.293909
     66 H27         1.1890   -2.5170    2.8210 h1        1 MOL     -0.021140
     67 H28         3.0200   -1.5640    3.8500 hc        1 MOL      0.110991
     68 H29         4.1740   -2.2970    2.6380 hc        1 MOL      0.110991
     69 N6          0.9880   -1.0150    0.5960 n         1 MOL     -0.322274
     70 C23        -0.4120   -1.3350    0.9650 c3        1 MOL     -0.152307
     71 C24        -0.9840   -2.3700   -0.0070 c         1 MOL      0.493786
     72 O13        -0.4690   -2.7090   -1.0640 o         1 MOL     -0.503383
     73 H30         1.1410   -0.2470   -0.0340 hn        1 MOL      0.306262
     74 H31        -0.9930   -0.4250    0.8310 h1        1 MOL      0.115840
     75 H32        -0.5280   -1.6430    1.9960 h1        1 MOL      0.115840
     76 N7         -2.1650   -2.8090    0.3820 n         1 MOL     -0.478463
     77 C25        -2.8800   -3.8450   -0.3060 c3        1 MOL     -0.009335
     78 C26        -3.4280   -3.5410   -1.6500 c         1 MOL      0.385826
     79 O14        -3.9170   -4.4930   -2.2560 o         1 MOL     -0.523949
     80 C27        -3.9240   -4.6080    0.5170 c3        1 MOL      0.176086
     81 C28        -3.4550   -5.3730    1.7790 c3        1 MOL     -0.266956
     82 C29        -4.5290   -6.3480    2.2200 c         1 MOL      0.695721
     83 N8         -4.2760   -6.9630    3.3340 n         1 MOL     -0.793767
     84 O15        -5.6300   -6.5510    1.7080 o         1 MOL     -0.582738
     85 H33        -2.5110   -2.5060    1.2920 hn        1 MOL      0.304183
     86 H34        -2.1810   -4.6370   -0.5960 h1        1 MOL      0.119632
     87 H35        -4.3150   -5.3370   -0.1890 hc        1 MOL      0.005158
     88 H36        -4.7170   -3.9110    0.7920 hc        1 MOL      0.005158
     89 H37        -3.3220   -4.7770    2.6740 hc        1 MOL      0.077405
     90 H38        -2.6150   -6.0460    1.6380 hc        1 MOL      0.077405
     91 H39        -3.5040   -6.7750    3.9540 hn        1 MOL      0.352297
     92 H40        -5.0300   -7.5600    3.6480 hn        1 MOL      0.352297
     93 N9         -3.3750   -2.3100   -2.1240 n         1 MOL     -0.154709
     94 C30        -3.8250   -1.9390   -3.4350 c3        1 MOL      0.017853
     95 C31        -5.1480   -1.2600   -3.4590 c         1 MOL      0.526873
     96 O16        -5.8080   -1.2820   -4.4930 o         1 MOL     -0.551032
     97 C32        -2.7400   -1.1540   -4.2380 c3        1 MOL      0.154526
     98 C33        -1.5890   -1.9410   -4.7940 c3        1 MOL     -0.201731
     99 C34        -2.2250    0.0610   -3.4880 c3        1 MOL     -0.201731
    100 H41        -3.0940   -1.6150   -1.4520 hn        1 MOL      0.179308
    101 H42        -4.0680   -2.8080   -4.0560 h1        1 MOL      0.086030
    102 H43        -3.3140   -0.9230   -5.1300 hc        1 MOL     -0.016403
    103 H44        -1.0710   -1.2910   -5.5000 hc        1 MOL      0.049185
    104 H45        -0.9850   -2.2860   -3.9590 hc        1 MOL      0.049185
    105 H46        -1.9410   -2.8220   -5.3220 hc        1 MOL      0.049185
    106 H47        -1.6610   -0.2910   -2.6250 hc        1 MOL      0.049185
    107 H48        -1.6290    0.7300   -4.1240 hc        1 MOL      0.049185
    108 H49        -3.0710    0.6640   -3.1500 hc        1 MOL      0.049185
    109 N10        -5.7670   -0.8220   -2.3020 n         1 MOL     -0.492839
    110 C35        -7.1430   -0.3920   -2.3020 c3        1 MOL      0.214018
    111 C36        -7.2700    1.1380   -1.8780 c         1 MOL      0.488775
    112 O17        -8.2010    1.7780   -2.3530 o         1 MOL     -0.537354
    113 C37        -7.9700   -1.4000   -1.5010 c3        1 MOL     -0.216382
    114 C38        -7.7210   -2.8880   -1.8200 c         1 MOL      0.684067
    115 N11        -7.8040   -3.2320   -3.0860 n         1 MOL     -0.825310
    116 O18        -7.4180   -3.6840   -0.9460 o         1 MOL     -0.556110
    117 H50        -5.2080   -0.5800   -1.5010 hn        1 MOL      0.229607
    118 H51        -7.5230   -0.3660   -3.3240 h1        1 MOL      0.022213
    119 H52        -9.0420   -1.2280   -1.6360 hc        1 MOL      0.038387
    120 H53        -7.8260   -1.2910   -0.4260 hc        1 MOL      0.038387
    121 H54        -7.8400   -2.5760   -3.8520 hn        1 MOL      0.376848
    122 H55        -7.8530   -4.2070   -3.3440 hn        1 MOL      0.376848
    123 N12        -6.4210    1.6580   -0.9710 n         1 MOL     -0.442986
    124 C39        -6.4880    2.9670   -0.2930 c3        1 MOL      0.264426
    125 C40        -5.0540    3.3600    0.2270 c         1 MOL      0.226269
    126 O19        -4.1150    2.6170   -0.0300 o         1 MOL     -0.451745
    127 C41        -7.4860    2.7960    0.8560 c3        1 MOL     -0.336894
    128 C42        -7.4960    1.5620    1.7410 ca        1 MOL      0.183624
    129 C43        -6.3740    1.4140    2.5950 ca        1 MOL     -0.225731
    130 C44        -8.5260    0.6170    1.7250 ca        1 MOL     -0.225731
    131 C45        -6.3290    0.2910    3.3930 ca        1 MOL     -0.226247
    132 C46        -8.3950   -0.5620    2.5150 ca        1 MOL     -0.226247
    133 C47        -7.2910   -0.7230    3.3440 ca        1 MOL      0.330839
    134 O20        -7.2150   -1.7970    4.1810 oh        1 MOL     -0.449496
    135 H56        -5.6480    1.0680   -0.6850 hn        1 MOL      0.316689
    136 H57        -6.8340    3.6710   -1.0400 h1        1 MOL      0.039489
    137 H58        -8.4460    2.7760    0.3420 hc        1 MOL      0.087839
    138 H59        -7.4860    3.6340    1.5430 hc        1 MOL      0.087839
    139 H60        -5.6390    2.2000    2.5800 ha        1 MOL      0.137424
    140 H61        -9.2620    0.6210    0.9380 ha        1 MOL      0.137424
    141 H62        -5.5210    0.2470    4.1070 ha        1 MOL      0.149957
    142 H63        -9.1160   -1.3500    2.3190 ha        1 MOL      0.149957
    143 H64        -8.0650   -2.2260    4.2600 ho        1 MOL      0.324591
    144 N13        -4.8780    4.4500    0.9410 n         1 MOL     -0.205198
    145 C48        -3.6360    4.8250    1.5680 c3        1 MOL     -0.038868
    146 C49        -2.3150    5.0420    0.8430 c         1 MOL      0.230587
    147 O21        -1.5110    5.9700    1.1740 o         1 MOL     -0.498872
    148 C50        -3.4330    3.8730    2.7660 c3        1 MOL     -0.286446
    149 C51        -2.1450    4.0790    3.6580 c3        1 MOL     -0.345625
    150 C52        -2.2400    3.4200    5.0310 c         1 MOL      0.772797
    151 O22        -2.8840    3.9560    5.9350 o         1 MOL     -0.742415
    152 O23        -1.5070    2.3800    5.0960 o         1 MOL     -0.742415
    153 H65        -5.7030    5.0310    1.0040 hn        1 MOL      0.219035
    154 H66        -3.9640    5.7820    1.9640 h1        1 MOL      0.110653
    155 H67        -3.4150    2.8170    2.4920 hc        1 MOL      0.161140
    156 H68        -4.3200    4.0200    3.3750 hc        1 MOL      0.161140
    157 H69        -2.0020    5.1560    3.7510 hc        1 MOL      0.118029
    158 H70        -1.3480    3.7330    2.9950 hc        1 MOL      0.118029
    159 N14        -1.9550    4.2530   -0.1850 n         1 MOL      0.020727
    160 C53        -0.7700    4.4750   -1.0690 c3        1 MOL     -0.271493
    161 C54        -1.0610    5.5210   -2.1190 c         1 MOL      0.474813
    162 O24        -0.2310    5.8060   -2.9640 o         1 MOL     -0.533560
    163 C55        -0.4790    3.1710   -1.8210 c3        1 MOL     -0.113877
    164 C56        -0.2910    1.8120   -0.9840 c3        1 MOL      0.350808
    165 C57         0.6870    2.0210    0.1050 c         1 MOL      0.743642
    166 O25         0.2660    2.1680    1.2920 o         1 MOL     -0.720086
    167 O26         1.9580    2.0930   -0.0970 o         1 MOL     -0.720086
    168 H71        -2.5240    3.4500   -0.3910 hn        1 MOL      0.116199
    169 H72         0.0880    4.7830   -0.4780 h1        1 MOL      0.220032
    170 H73         0.4620    3.3610   -2.3280 hc        1 MOL      0.030953
    171 H74        -1.1310    2.9240   -2.6710 hc        1 MOL      0.030953
    172 H75         0.0810    0.9860   -1.5900 hc        1 MOL     -0.134312
    173 H76        -1.2350    1.5570   -0.5120 hc        1 MOL     -0.134312
    174 N15        -2.2700    6.0160   -2.2050 n         1 MOL     -0.165155
    175 C58        -2.8210    7.0070   -3.0970 c3        1 MOL     -0.130881
    176 H77        -2.6150    8.0030   -2.7050 h1        1 MOL      0.065534
    177 H78        -2.3660    6.9040   -4.0820 h1        1 MOL      0.065534
    178 H79        -3.8980    6.8660   -3.1780 h1        1 MOL      0.065534
    179 H80        -2.9000    5.6570   -1.5070 hn        1 MOL      0.171474
    180 Ca1         4.1420    1.6970    1.3950 Ca        1 MOL      1.848011
    181 O27         2.1340    0.9550    3.0130 oh        1 MOL     -0.844445
    182 H81         1.8750    0.4400    3.7680 ho        1 MOL      0.401190
    183 H82         1.3240    1.3140    2.6660 ho        1 MOL      0.401190
    184 O28         4.0810    4.3560    2.0050 oh        1 MOL     -0.844445
    185 H83         4.7920    4.9990    1.9820 ho        1 MOL      0.401190
    186 H84         3.2800    4.8750    1.9990 ho        1 MOL      0.401190
    187 O29         6.0990   -0.0900    2.2450 oh        1 MOL     -0.844445
    188 H85         6.9900   -0.4050    2.0600 ho        1 MOL      0.401190
    189 H86         5.9810   -0.2570    3.1800 ho        1 MOL      0.401190
    190 O30         4.9970    2.1530    3.9330 oh        1 MOL     -0.844445
    191 H87         4.9860    2.0800    4.8960 ho        1 MOL      0.401190
    192 H88         5.7620    2.6950    3.7530 ho        1 MOL      0.401190
@<TRIPOS>BOND
     1    1    2 1   
     2    1    4 1   
     3    1    5 1   
     4    1    6 1   
     5    2    3 2   
     6    2    7 1   
     7    7    8 1   
     8    7   15 1   
     9    8    9 1   
    10    8   11 1   
    11    8   16 1   
    12    9   10 2   
    13    9   19 1   
    14   11   12 1   
    15   11   17 1   
    16   11   18 1   
    17   12   13 1   
    18   12   14 1   
    19   19   20 1   
    20   19   27 1   
    21   20   21 1   
    22   20   23 1   
    23   20   28 1   
    24   21   22 2   
    25   21   38 1   
    26   23   24 1   
    27   23   25 1   
    28   23   29 1   
    29   24   26 1   
    30   24   30 1   
    31   24   31 1   
    32   25   32 1   
    33   25   33 1   
    34   25   34 1   
    35   26   35 1   
    36   26   36 1   
    37   26   37 1   
    38   38   39 1   
    39   38   46 1   
    40   39   40 1   
    41   39   42 1   
    42   39   47 1   
    43   40   41 2   
    44   40   50 1   
    45   42   43 1   
    46   42   48 1   
    47   42   49 1   
    48   43   44 1   
    49   43   45 1   
    50   50   51 1   
    51   50   54 1   
    52   51   52 1   
    53   51   55 1   
    54   51   56 1   
    55   52   53 2   
    56   52   57 1   
    57   57   58 1   
    58   57   65 1   
    59   58   59 1   
    60   58   61 1   
    61   58   66 1   
    62   59   60 2   
    63   59   69 1   
    64   61   62 1   
    65   61   67 1   
    66   61   68 1   
    67   62   63 1   
    68   62   64 1   
    69   69   70 1   
    70   69   73 1   
    71   70   71 1   
    72   70   74 1   
    73   70   75 1   
    74   71   72 2   
    75   71   76 1   
    76   76   77 1   
    77   76   85 1   
    78   77   78 1   
    79   77   80 1   
    80   77   86 1   
    81   78   79 2   
    82   78   93 1   
    83   80   81 1   
    84   80   87 1   
    85   80   88 1   
    86   81   82 1   
    87   81   89 1   
    88   81   90 1   
    89   82   83 1   
    90   82   84 2   
    91   83   91 1   
    92   83   92 1   
    93   93   94 1   
    94   93  100 1   
    95   94   95 1   
    96   94   97 1   
    97   94  101 1   
    98   95   96 2   
    99   95  109 1   
   100   97   98 1   
   101   97   99 1   
   102   97  102 1   
   103   98  103 1   
   104   98  104 1   
   105   98  105 1   
   106   99  106 1   
   107   99  107 1   
   108   99  108 1   
   109  109  110 1   
   110  109  117 1   
   111  110  111 1   
   112  110  113 1   
   113  110  118 1   
   114  111  112 2   
   115  111  123 1   
   116  113  114 1   
   117  113  119 1   
   118  113  120 1   
   119  114  115 1   
   120  114  116 2   
   121  115  121 1   
   122  115  122 1   
   123  123  124 1   
   124  123  135 1   
   125  124  125 1   
   126  124  127 1   
   127  124  136 1   
   128  125  126 2   
   129  125  144 1   
   130  127  128 1   
   131  127  137 1   
   132  127  138 1   
   133  128  129 ar  
   134  128  130 ar  
   135  129  131 ar  
   136  129  139 1   
   137  130  132 ar  
   138  130  140 1   
   139  131  133 ar  
   140  131  141 1   
   141  132  133 ar  
   142  132  142 1   
   143  133  134 1   
   144  134  143 1   
   145  144  145 1   
   146  144  153 1   
   147  145  146 1   
   148  145  148 1   
   149  145  154 1   
   150  146  147 2   
   151  146  159 1   
   152  148  149 1   
   153  148  155 1   
   154  148  156 1   
   155  149  150 1   
   156  149  157 1   
   157  149  158 1   
   158  150  151 1   
   159  150  152 1   
   160  159  160 1   
   161  159  168 1   
   162  160  161 1   
   163  160  163 1   
   164  160  169 1   
   165  161  162 2   
   166  161  174 1   
   167  163  164 1   
   168  163  170 1   
   169  163  171 1   
   170  164  165 1   
   171  164  172 1   
   172  164  173 1   
   173  165  166 1   
   174  165  167 1   
   175  174  175 1   
   176  174  179 1   
   177  175  176 1   
   178  175  177 1   
   179  175  178 1   
   180  181  182 1   
   181  181  183 1   
   182  184  185 1   
   183  184  186 1   
   184  187  188 1   
   185  187  189 1   
   186  190  191 1   
   187  190  192 1   
@<TRIPOS>SUBSTRUCTURE
     1 MOL         1 TEMP              0 ****  ****    0 ROOT
