@<TRIPOS>MOLECULE
MOL
  186   183     1     0     0
SMALL
resp


@<TRIPOS>ATOM
      1 C1          4.7760    4.2440   -3.2650 c3        1 MOL     -0.416261
      2 C2          5.4630    3.2470   -2.3120 c         1 MOL      0.729818
      3 O1          4.9200    2.9650   -1.2750 o         1 MOL     -0.603079
      4 H1          3.7330    3.9560   -3.4000 hc        1 MOL      0.107275
      5 H2          4.8230    5.2460   -2.8400 hc        1 MOL      0.107275
      6 H3          5.2830    4.2340   -4.2310 hc        1 MOL      0.107275
      7 N1          6.6110    2.6780   -2.6940 n         1 MOL     -0.689564
      8 C3          7.3220    1.5380   -2.1840 c3        1 MOL      0.133661
      9 C4          6.2940    0.4040   -1.7860 c         1 MOL      0.408484
     10 O2          5.8370    0.2330   -0.6740 o         1 MOL     -0.566859
     11 C5          8.3040    2.0110   -1.0260 c3        1 MOL     -0.064825
     12 C6          7.7830    2.9880    0.0450 c         1 MOL      0.745505
     13 O3          6.9050    2.5860    0.8180 o         1 MOL     -0.737727
     14 O4          8.4500    4.0610    0.2530 o         1 MOL     -0.737727
     15 H4          7.0620    3.1640   -3.4480 hn        1 MOL      0.343696
     16 H5          7.9840    1.2620   -3.0110 h1        1 MOL      0.049761
     17 H6          9.1720    2.4870   -1.4880 hc        1 MOL      0.005915
     18 H7          8.7650    1.1150   -0.6220 hc        1 MOL      0.005915
     19 N2          5.8740   -0.3020   -2.8320 n         1 MOL     -0.547603
     20 C7          4.9690   -1.4860   -2.8650 c3        1 MOL      0.325555
     21 C8          5.4810   -2.7290   -2.1340 c         1 MOL      0.298029
     22 O5          5.6300   -3.7700   -2.7500 o         1 MOL     -0.557641
     23 C9          3.5670   -1.0890   -2.5890 c3        1 MOL      0.306793
     24 C10         2.6620   -2.3190   -2.5760 c3        1 MOL     -0.276060
     25 C11         3.1190    0.0260   -3.5200 c3        1 MOL     -0.061613
     26 C12         2.4090   -3.1500   -3.8590 c3        1 MOL     -0.237233
     27 H8          6.1890    0.0300   -3.7340 hn        1 MOL      0.288133
     28 H9          4.9590   -1.8660   -3.8850 h1        1 MOL     -0.044714
     29 H10         3.5120   -0.6140   -1.6100 hc        1 MOL     -0.080804
     30 H11         1.7420   -1.8410   -2.2520 hc        1 MOL      0.120755
     31 H12         2.9440   -3.0090   -1.7760 hc        1 MOL      0.120755
     32 H13         2.0920    0.3350   -3.3100 hc        1 MOL     -0.014587
     33 H14         3.7170    0.9360   -3.4790 hc        1 MOL     -0.014587
     34 H15         3.2220   -0.3050   -4.5510 hc        1 MOL     -0.014587
     35 H16         2.1710   -2.5800   -4.7670 hc        1 MOL      0.055796
     36 H17         3.2800   -3.7800   -4.0780 hc        1 MOL      0.055796
     37 H18         1.5840   -3.8320   -3.6300 hc        1 MOL      0.055796
     38 N3          5.7650   -2.6530   -0.8570 n         1 MOL     -0.155300
     39 C13         6.4120   -3.8170   -0.1570 c3        1 MOL      0.224744
     40 C14         5.6940   -5.1830   -0.0180 c         1 MOL      0.510712
     41 O6          6.3190   -6.2250   -0.1900 o         1 MOL     -0.573690
     42 C15         6.9400   -3.3470    1.1790 c3        1 MOL     -0.310810
     43 C16         7.9250   -2.0960    1.1390 c         1 MOL      0.815772
     44 O7          8.5390   -1.8470    0.1020 o         1 MOL     -0.726409
     45 O8          8.1390   -1.4800    2.1800 o         1 MOL     -0.726409
     46 H19         5.6390   -1.7980   -0.3370 hn        1 MOL      0.281557
     47 H20         7.2940   -4.1040   -0.7340 h1        1 MOL      0.011692
     48 H21         7.6440   -4.1220    1.4840 hc        1 MOL      0.052793
     49 H22         6.2010   -3.1360    1.9560 hc        1 MOL      0.052793
     50 N4          4.4180   -5.1730    0.2970 n         1 MOL     -0.480157
     51 C17         3.5260   -4.1120    0.8960 c3        1 MOL     -0.019121
     52 C18         3.7790   -3.8800    2.4060 c         1 MOL      0.496869
     53 O9          4.5270   -4.5220    3.1170 o         1 MOL     -0.535181
     54 H23         3.9010   -6.0380    0.2550 hn        1 MOL      0.285877
     55 H24         2.5290   -4.5330    0.8130 h1        1 MOL      0.078225
     56 H25         3.6030   -3.1700    0.3590 h1        1 MOL      0.078225
     57 N5          3.1200   -2.9350    3.1310 n         1 MOL     -0.387330
     58 C19         2.0360   -2.0940    2.7400 c3        1 MOL      0.012988
     59 C20         2.2070   -1.2500    1.4210 c         1 MOL      0.202953
     60 O10         3.2470   -0.7140    1.1180 o         1 MOL     -0.542888
     61 C21         1.8250   -1.0880    3.9140 c3        1 MOL     -0.344107
     62 C22         3.0420   -0.1880    4.2160 c         1 MOL      0.792599
     63 O11         3.6640   -0.3550    5.2990 o         1 MOL     -0.709977
     64 O12         3.2450    0.7640    3.4110 o         1 MOL     -0.709977
     65 H26         3.2600   -2.9850    4.1300 hn        1 MOL      0.301594
     66 H27         1.1410   -2.7090    2.6570 h1        1 MOL      0.040562
     67 H28         1.5930   -1.5990    4.8550 hc        1 MOL      0.098622
     68 H29         1.0390   -0.3520    3.7440 hc        1 MOL      0.098622
     69 N6          1.1420   -0.9780    0.6390 n         1 MOL     -0.027160
     70 C23        -0.2810   -1.1700    0.9850 c3        1 MOL     -0.038961
     71 C24        -0.7630   -2.5230    0.4760 c         1 MOL      0.568012
     72 O13        -0.0830   -3.1370   -0.3160 o         1 MOL     -0.554458
     73 H30         1.2780   -0.4550   -0.2140 hn        1 MOL      0.195665
     74 H31        -0.9470   -0.3480    0.7350 h1        1 MOL      0.058363
     75 H32        -0.3670   -1.2470    2.0690 h1        1 MOL      0.058363
     76 N7         -1.9940   -2.9460    0.7830 n         1 MOL     -0.558494
     77 C25        -2.6740   -4.1620    0.1130 c3        1 MOL      0.028000
     78 C26        -3.4030   -3.9220   -1.2490 c         1 MOL      0.411524
     79 O14        -3.6180   -4.8290   -1.9940 o         1 MOL     -0.528296
     80 C27        -3.6830   -4.7800    1.1000 c3        1 MOL      0.142749
     81 C28        -5.0070   -4.1340    1.6750 c3        1 MOL     -0.507510
     82 C29        -6.1570   -3.6710    0.8350 c         1 MOL      0.654914
     83 N8         -7.0090   -4.5200    0.3770 n         1 MOL     -0.668771
     84 O15        -6.2930   -2.5410    0.5610 o         1 MOL     -0.542554
     85 H33        -2.5880   -2.3400    1.3310 hn        1 MOL      0.333352
     86 H34        -1.8580   -4.8700   -0.0310 h1        1 MOL      0.132491
     87 H35        -3.1530   -5.0570    1.9980 hc        1 MOL     -0.012723
     88 H36        -3.8940   -5.7610    0.6700 hc        1 MOL     -0.012723
     89 H37        -4.6450   -3.3670    2.3460 hc        1 MOL      0.155867
     90 H38        -5.4630   -4.9250    2.2670 hc        1 MOL      0.155867
     91 H39        -6.8820   -5.4840    0.6690 hn        1 MOL      0.319567
     92 H40        -7.7140   -4.2260   -0.2810 hn        1 MOL      0.319567
     93 N9         -3.6570   -2.6260   -1.4990 n         1 MOL     -0.105709
     94 C30        -3.9670   -2.0640   -2.8800 c3        1 MOL     -0.039501
     95 C31        -5.2730   -1.3880   -3.0040 c         1 MOL      0.268351
     96 O16        -5.6120   -0.9510   -4.1130 o         1 MOL     -0.537142
     97 C32        -2.7840   -1.1740   -3.3980 c3        1 MOL      0.168733
     98 C33        -1.4940   -2.0140   -3.5260 c3        1 MOL     -0.128809
     99 C34        -2.5970    0.0320   -2.4990 c3        1 MOL     -0.128809
    100 H41        -3.4040   -1.9930   -0.7490 hn        1 MOL      0.147562
    101 H42        -4.0770   -2.9390   -3.5190 h1        1 MOL      0.107399
    102 H43        -3.1060   -0.8370   -4.3860 hc        1 MOL      0.004236
    103 H44        -0.9780   -1.6560   -4.4160 hc        1 MOL      0.023449
    104 H45        -0.8610   -1.9360   -2.6410 hc        1 MOL      0.023449
    105 H46        -1.7420   -3.0550   -3.7240 hc        1 MOL      0.023449
    106 H47        -3.5300    0.5960   -2.4960 hc        1 MOL      0.023449
    107 H48        -2.3040   -0.2780   -1.4970 hc        1 MOL      0.023449
    108 H49        -1.8340    0.6960   -2.8910 hc        1 MOL      0.023449
    109 N10        -6.1500   -1.2440   -2.0110 n         1 MOL      0.010535
    110 C35        -7.3770   -0.3310   -2.0850 c3        1 MOL     -0.021529
    111 C36        -7.2500    1.0410   -1.3850 c         1 MOL      0.403356
    112 O17        -8.0790    1.9780   -1.5020 o         1 MOL     -0.529062
    113 C37        -8.5800   -1.0590   -1.4330 c3        1 MOL     -0.176658
    114 C38        -8.8860   -2.4470   -2.0120 c         1 MOL      0.652789
    115 N11        -9.0350   -2.5730   -3.3190 n         1 MOL     -0.815609
    116 O18        -9.0460   -3.3750   -1.2370 o         1 MOL     -0.548284
    117 H50        -5.9950   -1.8130   -1.1930 hn        1 MOL      0.086940
    118 H51        -7.4950   -0.1480   -3.1480 h1        1 MOL      0.076577
    119 H52        -9.4170   -0.3650   -1.4750 hc        1 MOL      0.054583
    120 H53        -8.3760   -1.2020   -0.3770 hc        1 MOL      0.054583
    121 H54        -8.6920   -1.8570   -3.9440 hn        1 MOL      0.379475
    122 H55        -9.5520   -3.3690   -3.6640 hn        1 MOL      0.379475
    123 N12        -6.0910    1.3870   -0.7590 n         1 MOL     -0.137758
    124 C39        -5.8560    2.5830   -0.0190 c3        1 MOL      0.087551
    125 C40        -4.4110    2.9470    0.2290 c         1 MOL      0.274779
    126 O19        -3.4970    2.0910    0.1970 o         1 MOL     -0.378141
    127 C41        -6.6710    2.5090    1.3530 c3        1 MOL      0.074194
    128 C42        -6.6820    1.0970    1.9790 ca        1 MOL      0.040895
    129 C43        -7.8040    0.2920    1.9280 ca        1 MOL     -0.208218
    130 C44        -5.5160    0.6890    2.7150 ca        1 MOL     -0.208218
    131 C45        -7.7610   -0.9190    2.6300 ca        1 MOL     -0.158518
    132 C46        -5.4480   -0.5830    3.2850 ca        1 MOL     -0.158518
    133 C47        -6.6300   -1.3890    3.2950 ca        1 MOL      0.228194
    134 O20        -6.5930   -2.5940    3.9210 oh        1 MOL     -0.450858
    135 H56        -5.2930    0.7860   -0.8910 hn        1 MOL      0.112517
    136 H57        -6.1930    3.4740   -0.5510 h1        1 MOL      0.019677
    137 H58        -7.7130    2.7270    1.1230 hc        1 MOL     -0.007527
    138 H59        -6.3450    3.3010    2.0320 hc        1 MOL     -0.007527
    139 H60        -8.7220    0.5700    1.4370 ha        1 MOL      0.149641
    140 H61        -4.6570    1.3380    2.7530 ha        1 MOL      0.149641
    141 H62        -8.7090   -1.4400    2.5590 ha        1 MOL      0.122056
    142 H63        -4.5580   -0.9040    3.8090 ha        1 MOL      0.122056
    143 H64        -7.3910   -3.1150    3.8040 ho        1 MOL      0.325780
    144 N13        -4.1660    4.2190    0.5850 n         1 MOL     -0.366624
    145 C48        -3.0260    4.9770    1.1930 c3        1 MOL     -0.209449
    146 C49        -1.8370    5.1500    0.2580 c         1 MOL      0.338786
    147 O21        -1.1600    6.2040    0.3410 o         1 MOL     -0.494742
    148 C50        -2.6460    4.4130    2.5490 c3        1 MOL      0.311233
    149 C51        -3.6640    4.3740    3.6750 c3        1 MOL     -0.292079
    150 C52        -2.9670    4.0380    5.0400 c         1 MOL      0.588149
    151 O22        -2.0540    4.6920    5.5380 o         1 MOL     -0.667621
    152 O23        -3.1870    2.8980    5.5660 o         1 MOL     -0.667621
    153 H65        -4.9700    4.8060    0.4450 hn        1 MOL      0.287205
    154 H66        -3.3680    6.0050    1.2970 h1        1 MOL      0.112682
    155 H67        -1.7780    4.9360    2.9420 hc        1 MOL      0.020017
    156 H68        -2.2790    3.4060    2.3390 hc        1 MOL      0.020017
    157 H69        -4.4640    3.6540    3.4960 hc        1 MOL      0.027331
    158 H70        -4.1070    5.3710    3.7370 hc        1 MOL      0.027331
    159 N14        -1.4800    4.2110   -0.5920 n         1 MOL     -0.211863
    160 C53        -0.3320    4.3100   -1.5040 c3        1 MOL     -0.037528
    161 C54        -0.5800    5.2920   -2.6450 c         1 MOL      0.406856
    162 O24         0.3640    5.8980   -3.1920 o         1 MOL     -0.541445
    163 C55         0.0220    2.9760   -2.0770 c3        1 MOL     -0.040789
    164 C56         0.3100    1.9490   -1.0100 c3        1 MOL      0.544652
    165 C57         1.5070    2.3270   -0.1240 c         1 MOL      0.339633
    166 O25         1.4220    3.1200    0.7750 o         1 MOL     -0.559434
    167 O26         2.4510    1.5550   -0.2850 o         1 MOL     -0.559434
    168 H71        -1.9730    3.3370   -0.6140 hn        1 MOL      0.206399
    169 H72         0.5500    4.6540   -0.9820 h1        1 MOL      0.150227
    170 H73         0.9300    3.1010   -2.6650 hc        1 MOL     -0.017399
    171 H74        -0.8300    2.7050   -2.6910 hc        1 MOL     -0.017399
    172 H75         0.5260    0.9890   -1.4690 hc        1 MOL     -0.188924
    173 H76        -0.6210    1.8530   -0.4660 hc        1 MOL     -0.188924
    174 N15        -1.7780    5.4710   -3.1270 n         1 MOL     -0.096700
    175 C58        -2.2490    6.4900   -3.9860 c3        1 MOL     -0.384808
    176 H77        -3.3110    6.3390   -4.1810 h1        1 MOL      0.127051
    177 H78        -2.1010    7.4620   -3.5130 h1        1 MOL      0.127051
    178 H79        -1.6990    6.4560   -4.9270 h1        1 MOL      0.127051
    179 H80        -2.4800    4.8050   -2.8310 hn        1 MOL      0.182749
    180 Ca1         4.5160    1.5760    1.0110 Ca        1 MOL      1.785821
    181 O27         4.6920    3.4410    3.0180 oh        1 MOL     -0.863367
    182 H81         5.3730    4.1200    2.9460 ho        1 MOL      0.409597
    183 H82         4.6850    3.2070    3.9410 ho        1 MOL      0.409597
    184 O28         6.1430    0.1690    2.4640 oh        1 MOL     -0.863367
    185 H83         6.0080   -0.1190    3.3690 ho        1 MOL      0.409597
    186 H84         6.8070   -0.4280    2.1220 ho        1 MOL      0.409597
@<TRIPOS>BOND
     1    1    2 1   
     2    1    4 1   
     3    1    5 1   
     4    1    6 1   
     5    2    3 2   
     6    2    7 1   
     7    7    8 1   
     8    7   15 1   
     9    8    9 1   
    10    8   11 1   
    11    8   16 1   
    12    9   10 2   
    13    9   19 1   
    14   11   12 1   
    15   11   17 1   
    16   11   18 1   
    17   12   13 1   
    18   12   14 1   
    19   19   20 1   
    20   19   27 1   
    21   20   21 1   
    22   20   23 1   
    23   20   28 1   
    24   21   22 2   
    25   21   38 1   
    26   23   24 1   
    27   23   25 1   
    28   23   29 1   
    29   24   26 1   
    30   24   30 1   
    31   24   31 1   
    32   25   32 1   
    33   25   33 1   
    34   25   34 1   
    35   26   35 1   
    36   26   36 1   
    37   26   37 1   
    38   38   39 1   
    39   38   46 1   
    40   39   40 1   
    41   39   42 1   
    42   39   47 1   
    43   40   41 2   
    44   40   50 1   
    45   42   43 1   
    46   42   48 1   
    47   42   49 1   
    48   43   44 1   
    49   43   45 1   
    50   50   51 1   
    51   50   54 1   
    52   51   52 1   
    53   51   55 1   
    54   51   56 1   
    55   52   53 2   
    56   52   57 1   
    57   57   58 1   
    58   57   65 1   
    59   58   59 1   
    60   58   61 1   
    61   58   66 1   
    62   59   60 2   
    63   59   69 1   
    64   61   62 1   
    65   61   67 1   
    66   61   68 1   
    67   62   63 1   
    68   62   64 1   
    69   69   70 1   
    70   69   73 1   
    71   70   71 1   
    72   70   74 1   
    73   70   75 1   
    74   71   72 2   
    75   71   76 1   
    76   76   77 1   
    77   76   85 1   
    78   77   78 1   
    79   77   80 1   
    80   77   86 1   
    81   78   79 2   
    82   78   93 1   
    83   80   81 1   
    84   80   87 1   
    85   80   88 1   
    86   81   82 1   
    87   81   89 1   
    88   81   90 1   
    89   82   83 1   
    90   82   84 2   
    91   83   91 1   
    92   83   92 1   
    93   93   94 1   
    94   93  100 1   
    95   94   95 1   
    96   94   97 1   
    97   94  101 1   
    98   95   96 2   
    99   95  109 1   
   100   97   98 1   
   101   97   99 1   
   102   97  102 1   
   103   98  103 1   
   104   98  104 1   
   105   98  105 1   
   106   99  106 1   
   107   99  107 1   
   108   99  108 1   
   109  109  110 1   
   110  109  117 1   
   111  110  111 1   
   112  110  113 1   
   113  110  118 1   
   114  111  112 2   
   115  111  123 1   
   116  113  114 1   
   117  113  119 1   
   118  113  120 1   
   119  114  115 1   
   120  114  116 2   
   121  115  121 1   
   122  115  122 1   
   123  123  124 1   
   124  123  135 1   
   125  124  125 1   
   126  124  127 1   
   127  124  136 1   
   128  125  126 2   
   129  125  144 1   
   130  127  128 1   
   131  127  137 1   
   132  127  138 1   
   133  128  129 ar  
   134  128  130 ar  
   135  129  131 ar  
   136  129  139 1   
   137  130  132 ar  
   138  130  140 1   
   139  131  133 ar  
   140  131  141 1   
   141  132  133 ar  
   142  132  142 1   
   143  133  134 1   
   144  134  143 1   
   145  144  145 1   
   146  144  153 1   
   147  145  146 1   
   148  145  148 1   
   149  145  154 1   
   150  146  147 2   
   151  146  159 1   
   152  148  149 1   
   153  148  155 1   
   154  148  156 1   
   155  149  150 1   
   156  149  157 1   
   157  149  158 1   
   158  150  151 1   
   159  150  152 1   
   160  159  160 1   
   161  159  168 1   
   162  160  161 1   
   163  160  163 1   
   164  160  169 1   
   165  161  162 2   
   166  161  174 1   
   167  163  164 1   
   168  163  170 1   
   169  163  171 1   
   170  164  165 1   
   171  164  172 1   
   172  164  173 1   
   173  165  166 1   
   174  165  167 1   
   175  174  175 1   
   176  174  179 1   
   177  175  176 1   
   178  175  177 1   
   179  175  178 1   
   180  181  182 1   
   181  181  183 1   
   182  184  185 1   
   183  184  186 1   
@<TRIPOS>SUBSTRUCTURE
     1 MOL         1 TEMP              0 ****  ****    0 ROOT
