@<TRIPOS>MOLECULE
MOL
  195   189     1     0     0
SMALL
resp


@<TRIPOS>ATOM
      1 C1          2.0180    9.1510    1.4200 c3        1 MOL     -0.353715
      2 C2          1.2570    7.8200    1.1300 c         1 MOL      0.597236
      3 O1          0.4920    7.3580    2.0590 o         1 MOL     -0.590953
      4 H1          2.0750    9.3080    2.4970 hc        1 MOL      0.094346
      5 H2          3.0250    9.0920    1.0080 hc        1 MOL      0.094346
      6 H3          1.4840    9.9830    0.9600 hc        1 MOL      0.094346
      7 N1          1.4710    7.1140    0.0270 n         1 MOL     -0.394547
      8 C3          0.9180    5.7680   -0.2570 c3        1 MOL     -0.010682
      9 C4          1.8130    4.5300   -0.1090 c         1 MOL      0.489357
     10 O2          1.4700    3.4920   -0.6280 o         1 MOL     -0.477384
     11 C5          0.2420    5.7660   -1.6390 c3        1 MOL     -0.271652
     12 C6          1.3510    5.9390   -2.7440 c         1 MOL      0.697551
     13 O3          1.0290    5.5450   -3.8870 o         1 MOL     -0.681511
     14 O4          2.4640    6.4490   -2.6390 o         1 MOL     -0.681511
     15 H4          2.0990    7.5610   -0.6300 hn        1 MOL      0.214313
     16 H5          0.0530    5.6310    0.4050 h1        1 MOL      0.124495
     17 H6         -0.5000    6.5590   -1.6780 hc        1 MOL      0.096300
     18 H7         -0.3610    4.8680   -1.7540 hc        1 MOL      0.096300
     19 N2          3.0340    4.6800    0.4210 n         1 MOL     -0.442975
     20 C7          4.0010    3.6010    0.3440 c3        1 MOL      0.068933
     21 C8          3.9300    2.5350    1.4580 c         1 MOL      0.644929
     22 O5          3.6990    2.9410    2.5670 o         1 MOL     -0.561387
     23 C9          5.4410    4.1820    0.4730 c3        1 MOL     -0.274569
     24 C10         5.8140    5.0750   -0.7660 c3        1 MOL      0.127759
     25 C11         5.5700    4.5200   -2.0820 c3        1 MOL     -0.064598
     26 C12         5.9250    5.4320   -3.3030 c3        1 MOL     -0.028179
     27 N3          5.1040    6.6510   -3.3840 n4        1 MOL     -0.169799
     28 H8          3.3310    5.5200    0.8840 hn        1 MOL      0.306751
     29 H9          3.8590    3.0580   -0.5950 h1        1 MOL      0.155351
     30 H10         6.1760    3.4010    0.6180 hc        1 MOL      0.095526
     31 H11         5.4440    4.8730    1.3220 hc        1 MOL      0.095526
     32 H12         6.8810    5.2970   -0.7930 hc        1 MOL     -0.052062
     33 H13         5.2240    5.9960   -0.7900 hc        1 MOL     -0.052062
     34 H14         4.5240    4.2490   -2.2190 hc        1 MOL      0.093355
     35 H15         6.2410    3.6830   -2.2700 hc        1 MOL      0.093355
     36 H16         5.8250    4.9080   -4.2530 hx        1 MOL      0.068829
     37 H17         6.9600    5.7720   -3.3730 hx        1 MOL      0.068829
     38 H18         4.1690    6.5200   -3.0170 hn        1 MOL      0.257033
     39 H19         5.5370    7.4480   -2.9450 hn        1 MOL      0.257033
     40 H20         4.9710    7.0510   -4.2980 hn        1 MOL      0.257033
     41 N4          4.1580    1.2120    1.2830 n         1 MOL     -0.673255
     42 C13         4.2900    0.3970   -0.0130 c3        1 MOL      0.039247
     43 C14         5.2250    0.9770   -1.1260 c         1 MOL      0.490994
     44 O6          4.7040    1.5580   -2.1090 o         1 MOL     -0.601944
     45 C15         2.8770    0.0650   -0.4550 c3        1 MOL      0.125684
     46 C16         1.9480   -0.5550    0.5640 c         1 MOL      0.709098
     47 O7          0.6770   -0.4920    0.4630 o         1 MOL     -0.730152
     48 O8          2.3660   -1.2750    1.4960 o         1 MOL     -0.730152
     49 H21         4.1750    0.5900    2.0830 hn        1 MOL      0.376805
     50 H22         4.7490   -0.5370    0.3030 h1        1 MOL      0.031830
     51 H23         2.9040   -0.6500   -1.2790 hc        1 MOL     -0.023630
     52 H24         2.3360    0.9340   -0.8510 hc        1 MOL     -0.023630
     53 N5          6.5130    0.9780   -0.9940 n         1 MOL     -0.362241
     54 C17         7.3610    0.3400    0.0580 c3        1 MOL     -0.028874
     55 C18         8.6110   -0.3050   -0.3150 c         1 MOL      0.653092
     56 O9          9.1500   -0.0110   -1.3450 o         1 MOL     -0.582921
     57 H25         6.9360    1.4140   -1.7890 hn        1 MOL      0.277599
     58 H26         6.8540   -0.3630    0.7170 h1        1 MOL      0.076898
     59 H27         7.5620    1.1720    0.7260 h1        1 MOL      0.076898
     60 N6          9.2380   -1.1300    0.5460 n         1 MOL     -0.498660
     61 C19         8.7780   -1.5870    1.8350 c3        1 MOL      0.035099
     62 C20         7.6270   -2.5910    1.9090 c         1 MOL      0.453531
     63 O10         7.1060   -2.9500    2.9580 o         1 MOL     -0.527370
     64 C21         9.9190   -1.9240    2.7380 c3        1 MOL     -0.095131
     65 C22        11.0370   -0.9960    2.6070 c         1 MOL      0.669806
     66 O11        10.8290    0.1630    3.0570 o         1 MOL     -0.650282
     67 O12        11.9880   -1.4560    1.9400 o         1 MOL     -0.650282
     68 H28        10.1510   -1.3950    0.2250 hn        1 MOL      0.316781
     69 H29         8.2800   -0.6880    2.2100 h1        1 MOL      0.060914
     70 H30        10.2980   -2.9220    2.4990 hc        1 MOL      0.018618
     71 H31         9.5490   -1.9280    3.7680 hc        1 MOL      0.018618
     72 N7          7.1130   -2.9930    0.7140 n         1 MOL     -0.216509
     73 C23         5.9520   -3.9210    0.5650 c3        1 MOL     -0.228680
     74 C24         5.0540   -3.5300   -0.5830 c         1 MOL      0.809177
     75 O13         5.4480   -2.6780   -1.4560 o         1 MOL     -0.553136
     76 H32         7.4310   -2.6290   -0.1670 hn        1 MOL      0.152811
     77 H33         5.3070   -3.8470    1.4350 h1        1 MOL      0.108659
     78 H34         6.3360   -4.9040    0.2950 h1        1 MOL      0.108659
     79 N8          3.9690   -4.2870   -0.7220 n         1 MOL     -0.844114
     80 C25         2.9140   -4.2130   -1.7720 c3        1 MOL      0.286310
     81 C26         1.6430   -3.4610   -1.4270 c         1 MOL      0.651657
     82 O14         1.2330   -3.5110   -0.2510 o         1 MOL     -0.585126
     83 C27         2.7730   -5.5720   -2.4010 c3        1 MOL      0.400719
     84 C28         1.8290   -5.5410   -3.6180 c3        1 MOL     -0.380379
     85 O15         2.2700   -6.4850   -1.4000 oh        1 MOL     -0.626827
     86 H35         3.8790   -5.0140   -0.0240 hn        1 MOL      0.296893
     87 H36         3.3760   -3.6420   -2.5790 h1        1 MOL     -0.009160
     88 H37         3.7680   -5.8370   -2.7600 h1        1 MOL      0.002603
     89 H38         3.0070   -6.8150   -0.8860 ho        1 MOL      0.372482
     90 H39         1.8390   -4.6060   -4.1810 hc        1 MOL      0.100200
     91 H40         2.2270   -6.3240   -4.2500 hc        1 MOL      0.100200
     92 H41         0.7880   -5.7490   -3.3640 hc        1 MOL      0.100200
     93 N9          0.9820   -2.7690   -2.3630 n         1 MOL     -0.501245
     94 C29        -0.3630   -2.2370   -2.0610 c3        1 MOL     -0.430941
     95 C30        -1.5050   -3.2860   -2.2090 c         1 MOL      0.996033
     96 O16        -1.2260   -4.2840   -2.8120 o         1 MOL     -0.599013
     97 C31        -0.7370   -1.0400   -3.0250 c3        1 MOL      0.181609
     98 C32        -0.8910   -1.5510   -4.4810 c3        1 MOL      0.098392
     99 C33         0.1900    0.1600   -2.8500 c3        1 MOL      0.003745
    100 C34        -1.5930   -0.4980   -5.3610 c3        1 MOL     -0.266455
    101 H42         1.3260   -2.7200   -3.3070 hn        1 MOL      0.323844
    102 H43        -0.3120   -1.8080   -1.0700 h1        1 MOL      0.082266
    103 H44        -1.7310   -0.7250   -2.7330 hc        1 MOL     -0.010409
    104 H45        -1.5620   -2.4110   -4.4430 hc        1 MOL     -0.012847
    105 H46         0.0370   -1.8590   -4.9450 hc        1 MOL     -0.012847
    106 H47        -0.2030    1.0840   -3.2880 hc        1 MOL      0.020305
    107 H48         0.2350    0.4960   -1.8060 hc        1 MOL      0.020305
    108 H49         1.1950    0.0350   -3.2360 hc        1 MOL      0.020305
    109 H50        -0.8290    0.2670   -5.4830 hc        1 MOL      0.055707
    110 H51        -1.7590   -0.9940   -6.3150 hc        1 MOL      0.055707
    111 H52        -2.4060    0.0430   -4.8910 hc        1 MOL      0.055707
    112 N10        -2.6570   -3.0700   -1.5060 n         1 MOL     -0.868459
    113 C35        -3.8170   -3.9090   -1.5780 c3        1 MOL      0.011920
    114 C36        -5.0700   -3.1260   -2.0300 c         1 MOL      0.624955
    115 O17        -5.9200   -3.7270   -2.6630 o         1 MOL     -0.528813
    116 C37        -4.0100   -4.5620   -0.2010 c3        1 MOL      0.439901
    117 C38        -5.1110   -5.5770   -0.2190 c3        1 MOL     -0.383807
    118 O18        -4.3360   -3.5690    0.6420 oh        1 MOL     -0.633279
    119 H53        -2.7040   -2.2230   -0.9590 hn        1 MOL      0.438681
    120 H54        -3.5890   -4.6580   -2.3350 h1        1 MOL      0.060698
    121 H55        -3.0950   -5.1030    0.0260 h1        1 MOL     -0.007300
    122 H56        -3.5890   -2.9930    0.8290 ho        1 MOL      0.296510
    123 H57        -5.1010   -6.2520   -1.0790 hc        1 MOL      0.091982
    124 H58        -5.0710   -6.2710    0.6220 hc        1 MOL      0.091982
    125 H59        -6.0940   -5.1070   -0.3160 hc        1 MOL      0.091982
    126 N11        -5.1090   -1.7680   -1.7290 n         1 MOL     -0.345367
    127 C39        -6.1510   -0.8730   -2.0550 c3        1 MOL     -0.223934
    128 C40        -7.3920   -0.9970   -1.2220 c         1 MOL      0.559466
    129 O19        -7.9470   -2.0280   -1.2420 o         1 MOL     -0.460685
    130 C41        -6.4390   -0.7280   -3.5360 c3        1 MOL      0.405374
    131 C42        -5.1710   -0.5620   -4.3920 c3        1 MOL     -0.461182
    132 O20        -7.1380    0.4760   -3.6820 oh        1 MOL     -0.662412
    133 H60        -4.2220   -1.4140   -1.3880 hn        1 MOL      0.238688
    134 H61        -5.7470    0.1150   -1.8230 h1        1 MOL      0.133457
    135 H62        -7.0850   -1.5400   -3.8680 h1        1 MOL      0.022585
    136 H63        -7.6600    0.3530   -4.4830 ho        1 MOL      0.398842
    137 H64        -4.6540    0.3370   -4.0660 hc        1 MOL      0.127032
    138 H65        -4.5330   -1.4490   -4.4400 hc        1 MOL      0.127032
    139 H66        -5.5460   -0.4400   -5.4000 hc        1 MOL      0.127032
    140 N12        -7.6960   -0.0490   -0.3070 n         1 MOL     -0.417025
    141 C43        -8.7390   -0.2080    0.6940 c3        1 MOL      0.040272
    142 C44        -8.2920    0.0050    2.1200 c         1 MOL      0.593611
    143 O21        -9.0520   -0.0650    3.0620 o         1 MOL     -0.573966
    144 C45        -9.8940    0.7100    0.4230 c3        1 MOL      0.066531
    145 C46        -9.6500    2.1940    0.5300 c3        1 MOL     -0.104897
    146 C47       -10.8900    3.0820    0.3680 c3        1 MOL     -0.104717
    147 C48       -11.2870    3.2800   -1.1580 c3        1 MOL      0.050253
    148 N13       -12.6620    3.7840   -1.3180 n4        1 MOL     -0.294413
    149 H67        -7.2460    0.8520   -0.4050 hn        1 MOL      0.270696
    150 H68        -9.1550   -1.2130    0.6810 h1        1 MOL      0.088902
    151 H69       -10.7310    0.4340    1.0600 hc        1 MOL     -0.017758
    152 H70       -10.1270    0.5720   -0.6330 hc        1 MOL     -0.017758
    153 H71        -8.8770    2.5530   -0.1500 hc        1 MOL      0.062168
    154 H72        -9.3040    2.3150    1.5580 hc        1 MOL      0.062168
    155 H73       -10.8160    4.1120    0.7280 hc        1 MOL      0.074837
    156 H74       -11.7280    2.6020    0.8770 hc        1 MOL      0.074837
    157 H75       -11.4470    2.3430   -1.7060 hx        1 MOL      0.078385
    158 H76       -10.5330    3.8230   -1.7350 hx        1 MOL      0.078385
    159 H77       -12.6600    4.7360   -0.9770 hn        1 MOL      0.263186
    160 H78       -12.9760    3.8140   -2.2810 hn        1 MOL      0.263186
    161 H79       -13.3270    3.3010   -0.7390 hn        1 MOL      0.263186
    162 N14        -7.0070    0.3420    2.2400 n         1 MOL     -0.345447
    163 C49        -6.2460    0.4270    3.5180 c3        1 MOL     -0.208780
    164 C50        -6.4890    1.8440    4.0500 c         1 MOL      0.424378
    165 O22        -6.2710    2.8440    3.3050 o         1 MOL     -0.504871
    166 C51        -4.6890    0.2750    3.0830 c3        1 MOL      0.010856
    167 C52        -4.2830   -1.1390    2.5330 c3        1 MOL     -0.017613
    168 C53        -2.8200   -1.2780    2.1340 c         1 MOL      0.631957
    169 O23        -1.9350   -0.8040    2.8760 o         1 MOL     -0.687620
    170 O24        -2.4430   -1.9850    1.2080 o         1 MOL     -0.687620
    171 H80        -6.5230    0.5370    1.3800 hn        1 MOL      0.216396
    172 H81        -6.6360   -0.2980    4.2300 h1        1 MOL      0.154411
    173 H82        -4.0080    0.3930    3.9250 hc        1 MOL      0.052896
    174 H83        -4.4780    1.0070    2.3090 hc        1 MOL      0.052896
    175 H84        -5.0100   -1.3080    1.7450 hc        1 MOL      0.016560
    176 H85        -4.6550   -1.8160    3.3000 hc        1 MOL      0.016560
    177 N15        -6.9960    2.0100    5.3240 n         1 MOL     -0.196995
    178 C54        -7.2690    3.2810    5.9840 c3        1 MOL     -0.245538
    179 H86        -7.6700    3.0930    6.9800 h1        1 MOL      0.115126
    180 H87        -6.3450    3.8530    6.0680 h1        1 MOL      0.115126
    181 H88        -7.9950    3.8460    5.4010 h1        1 MOL      0.115126
    182 H89        -7.1030    1.1450    5.8330 hn        1 MOL      0.220879
    183 Ca1         0.0020   -2.4420    2.0780 Ca        1 MOL      1.783239
    184 O25         0.8240   -1.2830    4.3060 oh        1 MOL     -0.837169
    185 H90         1.3670   -0.5150    4.4820 ho        1 MOL      0.417845
    186 H91         0.5930   -1.6220    5.1720 ho        1 MOL      0.417845
    187 O26         1.9910   -4.3720    2.4200 oh        1 MOL     -0.837169
    188 H92         2.7120   -4.5100    3.0350 ho        1 MOL      0.417845
    189 H93         1.9860   -5.1710    1.8860 ho        1 MOL      0.417845
    190 O27        -0.5550   -3.7110    4.2760 oh        1 MOL     -0.837169
    191 H94        -0.3090   -3.4630    5.1600 ho        1 MOL      0.417845
    192 H95        -0.7700   -4.6420    4.3390 ho        1 MOL      0.417845
    193 O28        -0.8300   -5.0320    1.8950 oh        1 MOL     -0.837169
    194 H96        -1.4070   -5.4550    2.5330 ho        1 MOL      0.417845
    195 H97        -0.9060   -5.5840    1.1150 ho        1 MOL      0.417845
@<TRIPOS>BOND
     1    1    2 1   
     2    1    4 1   
     3    1    5 1   
     4    1    6 1   
     5    2    3 2   
     6    2    7 1   
     7    7    8 1   
     8    7   15 1   
     9    8    9 1   
    10    8   11 1   
    11    8   16 1   
    12    9   10 2   
    13    9   19 1   
    14   11   12 1   
    15   11   17 1   
    16   11   18 1   
    17   12   13 1   
    18   12   14 1   
    19   19   20 1   
    20   19   28 1   
    21   20   21 1   
    22   20   23 1   
    23   20   29 1   
    24   21   22 2   
    25   21   41 1   
    26   23   24 1   
    27   23   30 1   
    28   23   31 1   
    29   24   25 1   
    30   24   32 1   
    31   24   33 1   
    32   25   26 1   
    33   25   34 1   
    34   25   35 1   
    35   26   27 1   
    36   26   36 1   
    37   26   37 1   
    38   27   38 1   
    39   27   39 1   
    40   27   40 1   
    41   41   42 1   
    42   41   49 1   
    43   42   43 1   
    44   42   45 1   
    45   42   50 1   
    46   43   44 2   
    47   43   53 1   
    48   45   46 1   
    49   45   51 1   
    50   45   52 1   
    51   46   47 1   
    52   46   48 1   
    53   53   54 1   
    54   53   57 1   
    55   54   55 1   
    56   54   58 1   
    57   54   59 1   
    58   55   56 2   
    59   55   60 1   
    60   60   61 1   
    61   60   68 1   
    62   61   62 1   
    63   61   64 1   
    64   61   69 1   
    65   62   63 2   
    66   62   72 1   
    67   64   65 1   
    68   64   70 1   
    69   64   71 1   
    70   65   66 1   
    71   65   67 1   
    72   72   73 1   
    73   72   76 1   
    74   73   74 1   
    75   73   77 1   
    76   73   78 1   
    77   74   75 2   
    78   74   79 1   
    79   79   80 1   
    80   79   86 1   
    81   80   81 1   
    82   80   83 1   
    83   80   87 1   
    84   81   82 2   
    85   81   93 1   
    86   83   84 1   
    87   83   85 1   
    88   83   88 1   
    89   84   90 1   
    90   84   91 1   
    91   84   92 1   
    92   85   89 1   
    93   93   94 1   
    94   93  101 1   
    95   94   95 1   
    96   94   97 1   
    97   94  102 1   
    98   95   96 2   
    99   95  112 1   
   100   97   98 1   
   101   97   99 1   
   102   97  103 1   
   103   98  100 1   
   104   98  104 1   
   105   98  105 1   
   106   99  106 1   
   107   99  107 1   
   108   99  108 1   
   109  100  109 1   
   110  100  110 1   
   111  100  111 1   
   112  112  113 1   
   113  112  119 1   
   114  113  114 1   
   115  113  116 1   
   116  113  120 1   
   117  114  115 2   
   118  114  126 1   
   119  116  117 1   
   120  116  118 1   
   121  116  121 1   
   122  117  123 1   
   123  117  124 1   
   124  117  125 1   
   125  118  122 1   
   126  126  127 1   
   127  126  133 1   
   128  127  128 1   
   129  127  130 1   
   130  127  134 1   
   131  128  129 2   
   132  128  140 1   
   133  130  131 1   
   134  130  132 1   
   135  130  135 1   
   136  131  137 1   
   137  131  138 1   
   138  131  139 1   
   139  132  136 1   
   140  140  141 1   
   141  140  149 1   
   142  141  142 1   
   143  141  144 1   
   144  141  150 1   
   145  142  143 2   
   146  142  162 1   
   147  144  145 1   
   148  144  151 1   
   149  144  152 1   
   150  145  146 1   
   151  145  153 1   
   152  145  154 1   
   153  146  147 1   
   154  146  155 1   
   155  146  156 1   
   156  147  148 1   
   157  147  157 1   
   158  147  158 1   
   159  148  159 1   
   160  148  160 1   
   161  148  161 1   
   162  162  163 1   
   163  162  171 1   
   164  163  164 1   
   165  163  166 1   
   166  163  172 1   
   167  164  165 2   
   168  164  177 1   
   169  166  167 1   
   170  166  173 1   
   171  166  174 1   
   172  167  168 1   
   173  167  175 1   
   174  167  176 1   
   175  168  169 1   
   176  168  170 1   
   177  177  178 1   
   178  177  182 1   
   179  178  179 1   
   180  178  180 1   
   181  178  181 1   
   182  184  185 1   
   183  184  186 1   
   184  187  188 1   
   185  187  189 1   
   186  190  191 1   
   187  190  192 1   
   188  193  194 1   
   189  193  195 1   
@<TRIPOS>SUBSTRUCTURE
     1 MOL         1 TEMP              0 ****  ****    0 ROOT
