@<TRIPOS>MOLECULE
MOL
  191   184     1     0     0
SMALL
resp


@<TRIPOS>ATOM
      1 C1         -6.6670   -1.6090    3.6180 c3        1 MOL     -0.300642
      2 C2         -6.6300   -1.3850    2.1010 c         1 MOL      0.590514
      3 O1         -5.8350   -0.5760    1.6300 o         1 MOL     -0.585602
      4 H1         -7.6540   -1.3460    3.9990 hc        1 MOL      0.075958
      5 H2         -6.4610   -2.6570    3.8360 hc        1 MOL      0.075958
      6 H3         -5.9140   -0.9820    4.0970 hc        1 MOL      0.075958
      7 N1         -7.4700   -2.0940    1.3230 n         1 MOL     -0.533265
      8 C3         -7.5120   -2.1270   -0.1350 c3        1 MOL      0.150815
      9 C4         -7.5280   -0.7700   -0.8180 c         1 MOL      0.551291
     10 O2         -7.0360   -0.6010   -1.8940 o         1 MOL     -0.486027
     11 C5         -6.4740   -3.0930   -0.7140 c3        1 MOL     -0.169737
     12 C6         -6.9710   -3.9120   -1.9010 c         1 MOL      0.656011
     13 O3         -6.1150   -4.4720   -2.6150 o         1 MOL     -0.647599
     14 O4         -8.2260   -3.9940   -2.0470 o         1 MOL     -0.647599
     15 H4         -7.8090   -2.8920    1.8350 hn        1 MOL      0.310501
     16 H5         -8.5320   -2.4610   -0.3320 h1        1 MOL      0.031770
     17 H6         -6.1540   -3.7670    0.0840 hc        1 MOL      0.066852
     18 H7         -5.5670   -2.5510   -0.9710 hc        1 MOL      0.066852
     19 N2         -7.9820    0.3060   -0.1020 n         1 MOL     -0.451459
     20 C7         -8.0450    1.7290   -0.6080 c3        1 MOL     -0.048154
     21 C8         -6.6900    2.3820   -0.7980 c         1 MOL      0.529739
     22 O5         -6.5160    3.4460   -1.3400 o         1 MOL     -0.574006
     23 C9         -8.9890    2.5560    0.2260 c3        1 MOL     -0.092619
     24 C10        -8.6090    2.4850    1.7160 c3        1 MOL      0.095605
     25 C11        -9.5100    3.3920    2.5690 c3        1 MOL     -0.004765
     26 C12        -9.3270    3.1960    4.0150 c3        1 MOL     -0.022447
     27 N3         -7.9170    3.4440    4.4800 n4        1 MOL     -0.323959
     28 H8         -8.3680    0.1170    0.8230 hn        1 MOL      0.194394
     29 H9         -8.5690    1.6810   -1.5660 h1        1 MOL      0.150506
     30 H10       -10.0330    2.2720    0.0890 hc        1 MOL      0.056354
     31 H11        -8.9940    3.5800   -0.1630 hc        1 MOL      0.056354
     32 H12        -7.5710    2.7730    1.8820 hc        1 MOL     -0.004395
     33 H13        -8.7730    1.4600    2.0590 hc        1 MOL     -0.004395
     34 H14       -10.5400    3.1340    2.3590 hc        1 MOL      0.035321
     35 H15        -9.3520    4.4330    2.2840 hc        1 MOL      0.035321
     36 H16        -9.6630    2.1830    4.2280 hx        1 MOL      0.093084
     37 H17        -9.9720    3.8710    4.5820 hx        1 MOL      0.093084
     38 H18        -7.4150    2.5790    4.3730 hn        1 MOL      0.285045
     39 H19        -7.4700    4.1620    3.9290 hn        1 MOL      0.285045
     40 H20        -7.8560    3.6730    5.4610 hn        1 MOL      0.285045
     41 N4         -5.5590    1.7900   -0.4090 n         1 MOL     -0.215775
     42 C13        -4.2240    2.2540   -0.6800 c3        1 MOL     -0.162133
     43 C14        -3.8570    2.1910   -2.1920 c         1 MOL      0.454315
     44 O6         -4.4170    1.3910   -2.9610 o         1 MOL     -0.434253
     45 C15        -3.2660    1.3260    0.0070 c3        1 MOL      0.089388
     46 C16        -1.9230    2.0470    0.1670 c         1 MOL      0.397369
     47 O7         -1.6700    2.9090    0.9570 o         1 MOL     -0.622481
     48 O8         -1.0760    1.8330   -0.6990 o         1 MOL     -0.622481
     49 H21        -5.6590    0.9270    0.1000 hn        1 MOL      0.177949
     50 H22        -4.1880    3.2820   -0.3290 h1        1 MOL      0.088406
     51 H23        -3.2390    0.3860   -0.5390 hc        1 MOL      0.008798
     52 H24        -3.7160    1.2010    0.9920 hc        1 MOL      0.008798
     53 N5         -2.8940    3.0380   -2.6230 n         1 MOL     -0.098516
     54 C17        -2.3630    3.1330   -4.0300 c3        1 MOL     -0.692721
     55 C18        -1.4970    1.9340   -4.4280 c         1 MOL      0.759405
     56 O9         -1.0220    1.8660   -5.5770 o         1 MOL     -0.581453
     57 H25        -2.6760    3.8020   -2.0020 hn        1 MOL      0.215366
     58 H26        -1.7020    4.0060   -4.0330 h1        1 MOL      0.264648
     59 H27        -3.1370    3.1470   -4.7910 h1        1 MOL      0.264648
     60 N6         -1.2890    0.8830   -3.5920 n         1 MOL     -0.383793
     61 C19        -0.3650   -0.2790   -3.7350 c3        1 MOL      0.000081
     62 C20        -0.9810   -1.6590   -3.3440 c         1 MOL      0.346006
     63 O10        -0.3000   -2.6200   -3.0200 o         1 MOL     -0.382646
     64 C21         0.8480    0.0830   -2.7700 c3        1 MOL      0.001991
     65 C22         1.4200    1.4540   -3.1580 c         1 MOL      0.493477
     66 N7          2.2380    1.4690   -4.1860 n         1 MOL     -0.630164
     67 O11         1.0750    2.4850   -2.5360 o         1 MOL     -0.596706
     68 H28        -1.6330    0.8920   -2.6440 hn        1 MOL      0.136292
     69 H29         0.0360   -0.4540   -4.7310 h1        1 MOL      0.105464
     70 H30         1.5620   -0.7480   -2.7860 hc        1 MOL      0.044717
     71 H31         0.3900    0.2220   -1.7820 hc        1 MOL      0.044717
     72 H32         2.5630    0.6170   -4.6090 hn        1 MOL      0.351696
     73 H33         2.6710    2.3750   -4.3330 hn        1 MOL      0.351696
     74 N8         -2.3200   -1.7820   -3.2870 n         1 MOL     -0.245523
     75 C23        -3.0470   -2.9280   -2.8070 c3        1 MOL     -0.073700
     76 C24        -2.8300   -3.4270   -1.3740 c         1 MOL      0.530484
     77 O12        -2.9910   -4.6190   -1.1410 o         1 MOL     -0.530469
     78 H34        -2.9180   -1.0140   -3.5570 hn        1 MOL      0.233204
     79 H35        -2.9380   -3.7770   -3.4820 h1        1 MOL      0.102881
     80 H36        -4.1060   -2.6470   -2.7770 h1        1 MOL      0.102881
     81 N9         -2.2370   -2.6580   -0.5320 n         1 MOL     -0.370787
     82 C25        -1.6490   -3.0240    0.7430 c3        1 MOL     -0.041734
     83 C26        -0.3800   -2.2330    0.8470 c         1 MOL      0.469465
     84 O13        -0.3500   -1.0420    0.6490 o         1 MOL     -0.454853
     85 C27        -2.6670   -2.6200    1.8060 c3        1 MOL      0.007531
     86 C28        -2.0080   -2.5820    3.1530 ca        1 MOL     -0.001541
     87 C29        -1.4620   -3.7870    3.6280 ca        1 MOL     -0.130134
     88 C30        -2.0500   -1.4430    3.9990 ca        1 MOL     -0.130134
     89 C31        -1.0020   -3.7550    4.9760 ca        1 MOL     -0.304636
     90 C32        -1.6850   -1.4470    5.3530 ca        1 MOL     -0.304636
     91 C33        -1.1340   -2.6310    5.8150 ca        1 MOL      0.362422
     92 O14        -0.5960   -2.6490    7.0420 oh        1 MOL     -0.509300
     93 H37        -2.1520   -1.7140   -0.9010 hn        1 MOL      0.240323
     94 H38        -1.3090   -4.0580    0.8320 h1        1 MOL      0.094573
     95 H39        -3.4370   -3.3780    1.7180 hc        1 MOL      0.064151
     96 H40        -3.0590   -1.6260    1.5980 hc        1 MOL      0.064151
     97 H41        -1.3810   -4.7470    3.1470 ha        1 MOL      0.145241
     98 H42        -2.5040   -0.5410    3.6060 ha        1 MOL      0.145241
     99 H43        -0.5470   -4.6340    5.4180 ha        1 MOL      0.150329
    100 H44        -1.7390   -0.5140    5.8940 ha        1 MOL      0.150329
    101 H45        -1.0340   -1.9620    7.5480 ho        1 MOL      0.384193
    102 N10         0.7740   -2.9810    1.1170 n         1 MOL     -0.428808
    103 C34         2.1270   -2.3830    1.3170 c3        1 MOL      0.084468
    104 C35         2.9040   -2.4160    0.0400 c         1 MOL      0.243896
    105 O15         3.5460   -1.4520   -0.3710 o         1 MOL     -0.418620
    106 C36         2.7650   -3.0270    2.5370 c3        1 MOL      0.135562
    107 C37         2.0770   -2.3670    3.7570 c3        1 MOL      0.100803
    108 C38         4.3430   -2.9580    2.5050 c3        1 MOL     -0.334991
    109 C39         2.3320   -3.1740    5.0740 c3        1 MOL     -0.195967
    110 H46         0.6730   -3.9640    1.2930 hn        1 MOL      0.282592
    111 H47         2.0110   -1.3320    1.5710 h1        1 MOL      0.043123
    112 H48         2.4240   -4.0620    2.6390 hc        1 MOL     -0.012364
    113 H49         1.0110   -2.3320    3.5410 hc        1 MOL     -0.007844
    114 H50         2.4020   -1.3330    3.8370 hc        1 MOL     -0.007844
    115 H51         4.6910   -3.4990    1.6210 hc        1 MOL      0.083528
    116 H52         4.7670   -1.9510    2.5170 hc        1 MOL      0.083528
    117 H53         4.8330   -3.5730    3.2580 hc        1 MOL      0.083528
    118 H54         2.0230   -2.6100    5.9530 hc        1 MOL      0.055089
    119 H55         1.8400   -4.1290    4.9480 hc        1 MOL      0.055089
    120 H56         3.3410   -3.5620    5.2340 hc        1 MOL      0.055089
    121 N11         2.6800   -3.3780   -0.8130 n         1 MOL     -0.168282
    122 C40         3.1300   -3.4920   -2.2180 c3        1 MOL     -0.080600
    123 C41         4.6570   -3.5220   -2.4530 c         1 MOL      0.396372
    124 O16         5.1460   -3.2460   -3.5440 o         1 MOL     -0.478094
    125 C42         2.4210   -4.7400   -2.7620 c3        1 MOL      0.078530
    126 O17         1.0280   -4.7790   -2.4690 oh        1 MOL     -0.584651
    127 H57         2.1190   -4.1450   -0.4740 hn        1 MOL      0.195146
    128 H58         2.7020   -2.6070   -2.6960 h1        1 MOL      0.119918
    129 H59         2.7550   -5.6840   -2.3360 h1        1 MOL      0.075212
    130 H60         2.6200   -4.6480   -3.8250 h1        1 MOL      0.075212
    131 H61         0.4580   -4.0270   -2.6590 ho        1 MOL      0.355726
    132 N12         5.3710   -3.9570   -1.4210 n         1 MOL     -0.366998
    133 C43         6.8280   -3.9170   -1.2680 c3        1 MOL      0.120424
    134 C44         7.4870   -2.5030   -1.3660 c         1 MOL      0.469035
    135 O18         8.7110   -2.3690   -1.5830 o         1 MOL     -0.568196
    136 C45         7.4780   -4.7990   -2.3310 c3        1 MOL     -0.148932
    137 H62         4.7810   -4.3020   -0.6720 hn        1 MOL      0.232559
    138 H63         7.1360   -4.2650   -0.2800 h1        1 MOL      0.079182
    139 H64         8.5490   -5.0150   -2.2640 hc        1 MOL      0.052935
    140 H65         7.1480   -5.8160   -2.1060 hc        1 MOL      0.052935
    141 H66         7.2930   -4.5990   -3.3860 hc        1 MOL      0.052935
    142 N13         6.7040   -1.4510   -1.1880 n         1 MOL     -0.333777
    143 C46         7.2300   -0.0130   -1.3170 c3        1 MOL      0.277381
    144 C47         7.6070    0.6340    0.0440 c         1 MOL      0.380575
    145 O19         6.9680    0.1800    1.0240 o         1 MOL     -0.438096
    146 C48         6.0970    0.7660   -2.0090 c3        1 MOL      0.032848
    147 H67         5.7560   -1.6380   -0.9060 hn        1 MOL      0.154290
    148 H68         7.9990    0.1510   -2.0660 h1        1 MOL      0.001106
    149 H69         6.3600    1.8130   -2.1910 hc        1 MOL     -0.021017
    150 H70         5.8900    0.3560   -2.9960 hc        1 MOL     -0.021017
    151 H71         5.1580    0.7050   -1.4540 hc        1 MOL     -0.021017
    152 N14         8.5480    1.5810    0.1510 n         1 MOL     -0.613141
    153 C49         8.8240    2.3730    1.3770 c3        1 MOL     -0.125348
    154 C50         9.1410    1.5520    2.6170 c         1 MOL      0.541162
    155 O20         9.0540    2.0620    3.7450 o         1 MOL     -0.528990
    156 C51         7.6800    3.3670    1.6320 c3        1 MOL      0.255835
    157 C52         7.6480    4.5430    0.6610 c3        1 MOL     -0.199199
    158 C53         6.4230    5.3880    1.0430 c         1 MOL      0.677681
    159 O21         5.2260    5.0220    0.7610 o         1 MOL     -0.709654
    160 O22         6.5360    6.4760    1.6280 o         1 MOL     -0.709654
    161 H72         9.0010    1.8940   -0.6950 hn        1 MOL      0.379269
    162 H73         9.6880    3.0130    1.2630 h1        1 MOL      0.103073
    163 H74         7.7940    3.8220    2.6140 hc        1 MOL     -0.018411
    164 H75         6.6940    2.9320    1.7650 hc        1 MOL     -0.018411
    165 H76         7.4260    4.2140   -0.3500 hc        1 MOL      0.022130
    166 H77         8.5730    5.1230    0.6290 hc        1 MOL      0.022130
    167 N15         9.5220    0.3020    2.4040 n         1 MOL     -0.314365
    168 C54         9.7190   -0.6710    3.4440 c3        1 MOL     -0.189095
    169 H78         8.9310   -0.5690    4.1900 h1        1 MOL      0.095029
    170 H79         9.6860   -1.6720    3.0150 h1        1 MOL      0.095029
    171 H80        10.6880   -0.5070    3.9150 h1        1 MOL      0.095029
    172 H81         9.3640   -0.1250    1.5020 hn        1 MOL      0.280403
    173 Ca1         0.7050    3.7440   -0.3540 Ca        1 MOL      1.832053
    174 O23         3.3260    3.3900   -0.3690 oh        1 MOL     -0.897801
    175 H82         3.8740    2.6040   -0.3430 ho        1 MOL      0.438332
    176 H83         3.8700    4.0790    0.0110 ho        1 MOL      0.438332
    177 O24         0.7120    5.8270   -2.6470 oh        1 MOL     -0.897801
    178 H84         1.5680    6.2500   -2.5680 ho        1 MOL      0.438332
    179 H85         0.1480    6.5150   -2.9920 ho        1 MOL      0.438332
    180 O25         1.0230    4.0750    2.3260 oh        1 MOL     -0.897801
    181 H86         1.0620    4.9710    2.6750 ho        1 MOL      0.438332
    182 H87         1.3020    3.5190    3.0570 ho        1 MOL      0.438332
    183 O26         1.3960    6.2020    0.1130 oh        1 MOL     -0.897801
    184 H88         1.9740    6.2620    0.8740 ho        1 MOL      0.438332
    185 H89         1.4420    7.0640   -0.2940 ho        1 MOL      0.438332
    186 O27         1.1800    1.3760    0.6880 oh        1 MOL     -0.897801
    187 H90         1.3920    1.1460    1.5880 ho        1 MOL      0.438332
    188 H91         0.4070    0.8530    0.4850 ho        1 MOL      0.438332
    189 O28        -1.3050    5.5420   -0.4510 oh        1 MOL     -0.897801
    190 H92        -1.0920    6.3830   -0.8520 ho        1 MOL      0.438332
    191 H93        -2.1620    5.6760   -0.0500 ho        1 MOL      0.438332
@<TRIPOS>BOND
     1    1    2 1   
     2    1    4 1   
     3    1    5 1   
     4    1    6 1   
     5    2    3 2   
     6    2    7 1   
     7    7    8 1   
     8    7   15 1   
     9    8    9 1   
    10    8   11 1   
    11    8   16 1   
    12    9   10 2   
    13    9   19 1   
    14   11   12 1   
    15   11   17 1   
    16   11   18 1   
    17   12   13 1   
    18   12   14 1   
    19   19   20 1   
    20   19   28 1   
    21   20   21 1   
    22   20   23 1   
    23   20   29 1   
    24   21   22 2   
    25   21   41 1   
    26   23   24 1   
    27   23   30 1   
    28   23   31 1   
    29   24   25 1   
    30   24   32 1   
    31   24   33 1   
    32   25   26 1   
    33   25   34 1   
    34   25   35 1   
    35   26   27 1   
    36   26   36 1   
    37   26   37 1   
    38   27   38 1   
    39   27   39 1   
    40   27   40 1   
    41   41   42 1   
    42   41   49 1   
    43   42   43 1   
    44   42   45 1   
    45   42   50 1   
    46   43   44 2   
    47   43   53 1   
    48   45   46 1   
    49   45   51 1   
    50   45   52 1   
    51   46   47 1   
    52   46   48 1   
    53   53   54 1   
    54   53   57 1   
    55   54   55 1   
    56   54   58 1   
    57   54   59 1   
    58   55   56 2   
    59   55   60 1   
    60   60   61 1   
    61   60   68 1   
    62   61   62 1   
    63   61   64 1   
    64   61   69 1   
    65   62   63 2   
    66   62   74 1   
    67   64   65 1   
    68   64   70 1   
    69   64   71 1   
    70   65   66 1   
    71   65   67 2   
    72   66   72 1   
    73   66   73 1   
    74   74   75 1   
    75   74   78 1   
    76   75   76 1   
    77   75   79 1   
    78   75   80 1   
    79   76   77 2   
    80   76   81 1   
    81   81   82 1   
    82   81   93 1   
    83   82   83 1   
    84   82   85 1   
    85   82   94 1   
    86   83   84 2   
    87   83  102 1   
    88   85   86 1   
    89   85   95 1   
    90   85   96 1   
    91   86   87 ar  
    92   86   88 ar  
    93   87   89 ar  
    94   87   97 1   
    95   88   90 ar  
    96   88   98 1   
    97   89   91 ar  
    98   89   99 1   
    99   90   91 ar  
   100   90  100 1   
   101   91   92 1   
   102   92  101 1   
   103  102  103 1   
   104  102  110 1   
   105  103  104 1   
   106  103  106 1   
   107  103  111 1   
   108  104  105 2   
   109  104  121 1   
   110  106  107 1   
   111  106  108 1   
   112  106  112 1   
   113  107  109 1   
   114  107  113 1   
   115  107  114 1   
   116  108  115 1   
   117  108  116 1   
   118  108  117 1   
   119  109  118 1   
   120  109  119 1   
   121  109  120 1   
   122  121  122 1   
   123  121  127 1   
   124  122  123 1   
   125  122  125 1   
   126  122  128 1   
   127  123  124 2   
   128  123  132 1   
   129  125  126 1   
   130  125  129 1   
   131  125  130 1   
   132  126  131 1   
   133  132  133 1   
   134  132  137 1   
   135  133  134 1   
   136  133  136 1   
   137  133  138 1   
   138  134  135 2   
   139  134  142 1   
   140  136  139 1   
   141  136  140 1   
   142  136  141 1   
   143  142  143 1   
   144  142  147 1   
   145  143  144 1   
   146  143  146 1   
   147  143  148 1   
   148  144  145 2   
   149  144  152 1   
   150  146  149 1   
   151  146  150 1   
   152  146  151 1   
   153  152  153 1   
   154  152  161 1   
   155  153  154 1   
   156  153  156 1   
   157  153  162 1   
   158  154  155 2   
   159  154  167 1   
   160  156  157 1   
   161  156  163 1   
   162  156  164 1   
   163  157  158 1   
   164  157  165 1   
   165  157  166 1   
   166  158  159 1   
   167  158  160 1   
   168  167  168 1   
   169  167  172 1   
   170  168  169 1   
   171  168  170 1   
   172  168  171 1   
   173  174  175 1   
   174  174  176 1   
   175  177  178 1   
   176  177  179 1   
   177  180  181 1   
   178  180  182 1   
   179  183  184 1   
   180  183  185 1   
   181  186  187 1   
   182  186  188 1   
   183  189  190 1   
   184  189  191 1   
@<TRIPOS>SUBSTRUCTURE
     1 MOL         1 TEMP              0 ****  ****    0 ROOT
