@<TRIPOS>MOLECULE
MOL
  192   187     1     0     0
SMALL
resp


@<TRIPOS>ATOM
      1 C1          4.3460    4.4460   -2.6050 c3        1 MOL     -0.486592
      2 C2          5.0700    3.4410   -1.6920 c         1 MOL      0.933174
      3 O1          4.4510    2.8510   -0.8340 o         1 MOL     -0.725153
      4 H1          3.2690    4.3060   -2.5170 hc        1 MOL      0.114010
      5 H2          4.6050    5.4610   -2.3040 hc        1 MOL      0.114010
      6 H3          4.6510    4.2840   -3.6380 hc        1 MOL      0.114010
      7 N1          6.3360    3.1950   -1.9580 n         1 MOL     -0.859384
      8 C3          7.0810    1.9500   -1.5760 c3        1 MOL      0.446134
      9 C4          6.1660    0.6550   -1.6160 c         1 MOL      0.099968
     10 O2          5.7450    0.2000   -0.5620 o         1 MOL     -0.327853
     11 C5          8.0320    2.1340   -0.3720 c3        1 MOL     -0.017399
     12 C6          7.6080    2.8710    0.8940 c         1 MOL      0.713542
     13 O3          6.7410    2.2440    1.5470 o         1 MOL     -0.723542
     14 O4          8.0620    3.9600    1.2760 o         1 MOL     -0.723542
     15 H4          6.8630    3.8050   -2.5630 hn        1 MOL      0.361842
     16 H5          7.8350    1.7460   -2.3360 h1        1 MOL     -0.015148
     17 H6          8.8140    2.7200   -0.8570 hc        1 MOL     -0.035456
     18 H7          8.4820    1.1680   -0.1270 hc        1 MOL     -0.035456
     19 N2          5.8250    0.1990   -2.8250 n         1 MOL     -0.282511
     20 C7          4.8520   -0.8550   -3.0770 c3        1 MOL      0.054420
     21 C8          5.3550   -2.2590   -2.6870 c         1 MOL      0.439142
     22 O5          5.5500   -3.0790   -3.5940 o         1 MOL     -0.575067
     23 C9          3.3220   -0.7040   -2.6900 c3        1 MOL      0.049424
     24 C10         2.3680   -1.6940   -3.4400 c3        1 MOL      0.026899
     25 C11         2.7430    0.7050   -2.8160 c3        1 MOL      0.031068
     26 C12         2.2620   -1.7370   -4.9620 c3        1 MOL     -0.412148
     27 H8          6.4070    0.5740   -3.5630 hn        1 MOL      0.253831
     28 H9          4.9060   -0.8610   -4.1720 h1        1 MOL      0.045999
     29 H10         3.2280   -1.0400   -1.6660 hc        1 MOL     -0.116305
     30 H11         1.3410   -1.5220   -3.0990 hc        1 MOL      0.079067
     31 H12         2.4740   -2.6920   -3.0170 hc        1 MOL      0.079067
     32 H13         1.6600    0.6960   -2.7490 hc        1 MOL     -0.007957
     33 H14         3.1640    1.3360   -2.0290 hc        1 MOL     -0.007957
     34 H15         3.0520    1.2180   -3.7290 hc        1 MOL     -0.007957
     35 H16         1.8370   -0.7810   -5.2650 hc        1 MOL      0.088573
     36 H17         3.2310   -1.8770   -5.4380 hc        1 MOL      0.088573
     37 H18         1.6540   -2.6010   -5.2550 hc        1 MOL      0.088573
     38 N3          5.6650   -2.4270   -1.3980 n         1 MOL     -0.104464
     39 C13         6.3040   -3.5290   -0.7360 c3        1 MOL     -0.029399
     40 C14         5.4740   -4.8250   -0.5430 c         1 MOL      0.621531
     41 O6          6.1340   -5.8610   -0.4690 o         1 MOL     -0.590466
     42 C15         7.0280   -3.0620    0.5220 c3        1 MOL     -0.164928
     43 C16         8.1410   -1.9670    0.1880 c         1 MOL      0.811785
     44 O7          9.0020   -2.1540   -0.7400 o         1 MOL     -0.723551
     45 O8          8.2810   -1.0440    0.9930 o         1 MOL     -0.723551
     46 H19         5.3850   -1.6350   -0.8570 hn        1 MOL      0.076416
     47 H20         7.0730   -3.8350   -1.4520 h1        1 MOL      0.056045
     48 H21         7.5690   -3.9580    0.8340 hc        1 MOL      0.027499
     49 H22         6.3730   -2.7190    1.3150 hc        1 MOL      0.027499
     50 N4          4.1390   -4.8650   -0.5300 n         1 MOL     -0.595919
     51 C17         3.1880   -3.8760   -0.2300 c3        1 MOL      0.180445
     52 C18         1.9190   -4.4780    0.3960 c         1 MOL      0.571354
     53 O9          1.2940   -5.3880   -0.0850 o         1 MOL     -0.590995
     54 H23         3.8620   -5.8440   -0.5180 hn        1 MOL      0.291249
     55 H24         2.9450   -3.2100   -1.0480 h1        1 MOL      0.032932
     56 H25         3.7130   -3.2650    0.5090 h1        1 MOL      0.032932
     57 N5          1.4690   -4.0880    1.5820 n         1 MOL     -0.544526
     58 C19         1.8260   -2.9090    2.4030 c3        1 MOL      0.267300
     59 C20         2.2070   -1.5760    1.6830 c         1 MOL      0.444081
     60 O10         3.3880   -1.1860    1.5660 o         1 MOL     -0.606517
     61 C21         2.9650   -3.3670    3.3180 c3        1 MOL     -0.373274
     62 C22         3.2220   -2.3890    4.4150 c         1 MOL      0.856694
     63 O11         4.2730   -2.4980    5.0830 o         1 MOL     -0.736400
     64 O12         2.3340   -1.6930    4.9040 o         1 MOL     -0.736400
     65 H26         0.8110   -4.7490    1.9650 hn        1 MOL      0.319934
     66 H27         0.9090   -2.6510    2.9350 h1        1 MOL      0.000133
     67 H28         3.8860   -3.3610    2.7460 hc        1 MOL      0.080208
     68 H29         2.8460   -4.3730    3.7220 hc        1 MOL      0.080208
     69 N6          1.2370   -0.9000    1.0580 n         1 MOL     -0.250868
     70 C23        -0.1990   -1.1130    1.0660 c3        1 MOL      0.097631
     71 C24        -0.6750   -2.1970    0.0350 c         1 MOL      0.406903
     72 O13        -0.0060   -2.4420   -0.9720 o         1 MOL     -0.521703
     73 H30         1.5370   -0.2760    0.3240 hn        1 MOL      0.244563
     74 H31        -0.7550   -0.1850    0.9760 h1        1 MOL      0.039913
     75 H32        -0.4590   -1.3680    2.0850 h1        1 MOL      0.039913
     76 N7         -1.8640   -2.8220    0.2840 n         1 MOL     -0.369745
     77 C25        -2.3740   -3.8700   -0.5570 c3        1 MOL     -0.017840
     78 C26        -3.0300   -3.4690   -1.8710 c         1 MOL      0.509955
     79 O14        -3.2780   -4.4060   -2.6500 o         1 MOL     -0.544892
     80 C27        -3.3680   -4.6320    0.2930 c3        1 MOL     -0.296835
     81 C28        -4.5220   -3.7440    0.7630 c3        1 MOL     -0.240466
     82 C29        -5.5640   -4.5050    1.6260 c         1 MOL      0.808158
     83 N8         -6.8190   -4.5450    1.2650 n         1 MOL     -0.896878
     84 O15        -5.2780   -5.1460    2.6640 o         1 MOL     -0.634236
     85 H33        -2.4560   -2.5710    1.0680 hn        1 MOL      0.257054
     86 H34        -1.5480   -4.5450   -0.7680 h1        1 MOL      0.163528
     87 H35        -2.8130   -4.9470    1.1760 hc        1 MOL      0.118852
     88 H36        -3.8900   -5.4310   -0.2370 hc        1 MOL      0.118852
     89 H37        -5.0670   -3.4030   -0.1180 hc        1 MOL      0.120349
     90 H38        -4.1660   -2.8870    1.3470 hc        1 MOL      0.120349
     91 H39        -7.1260   -4.1450    0.3880 hn        1 MOL      0.372688
     92 H40        -7.4410   -5.1180    1.8210 hn        1 MOL      0.372688
     93 N9         -3.1740   -2.1630   -2.1830 n         1 MOL     -0.270048
     94 C30        -3.6480   -1.5310   -3.4670 c3        1 MOL      0.024879
     95 C31        -4.9770   -0.8180   -3.4370 c         1 MOL      0.443454
     96 O16        -5.5230   -0.6360   -4.5110 o         1 MOL     -0.548548
     97 C32        -2.5230   -0.5780   -4.0530 c3        1 MOL      0.121112
     98 C33        -1.4570   -1.3330   -4.8170 c3        1 MOL     -0.264231
     99 C34        -1.8300    0.3910   -2.9840 c3        1 MOL     -0.264231
    100 H41        -3.0310   -1.5530   -1.3910 hn        1 MOL      0.183685
    101 H42        -3.8020   -2.3090   -4.2230 h1        1 MOL      0.099508
    102 H43        -2.8660   -0.0200   -4.9230 hc        1 MOL      0.028944
    103 H44        -1.1470   -2.2150   -4.2600 hc        1 MOL      0.068888
    104 H45        -1.9160   -1.6940   -5.7400 hc        1 MOL      0.068888
    105 H46        -0.6040   -0.6900   -5.0660 hc        1 MOL      0.068888
    106 H47        -1.1180    1.0450   -3.4820 hc        1 MOL      0.068888
    107 H48        -2.5930    1.0000   -2.4970 hc        1 MOL      0.068888
    108 H49        -1.3300   -0.2700   -2.2750 hc        1 MOL      0.068888
    109 N10        -5.5470   -0.5230   -2.2830 n         1 MOL     -0.373303
    110 C35        -7.0210   -0.2430   -2.1820 c3        1 MOL      0.200509
    111 C36        -7.2690    1.0250   -1.3780 c         1 MOL      0.495134
    112 O17        -8.2490    1.7310   -1.5980 o         1 MOL     -0.545661
    113 C37        -7.7330   -1.4140   -1.4700 c3        1 MOL     -0.275167
    114 C38        -7.5860   -2.7730   -2.0810 c         1 MOL      0.581168
    115 N11        -8.0150   -2.8950   -3.3560 n         1 MOL     -0.711192
    116 O18        -7.2610   -3.7480   -1.4380 o         1 MOL     -0.484925
    117 H50        -5.0780   -0.7330   -1.4120 hn        1 MOL      0.193083
    118 H51        -7.4960   -0.1090   -3.1600 h1        1 MOL      0.058004
    119 H52        -8.8010   -1.2160   -1.5680 hc        1 MOL      0.074256
    120 H53        -7.4300   -1.4820   -0.4170 hc        1 MOL      0.074256
    121 H54        -8.3820   -2.1150   -3.8980 hn        1 MOL      0.344260
    122 H55        -8.1590   -3.7960   -3.7760 hn        1 MOL      0.344260
    123 N12        -6.2820    1.4730   -0.5550 n         1 MOL     -0.698915
    124 C39        -6.2770    2.7650    0.1810 c3        1 MOL      0.822899
    125 C40        -4.7780    3.2510    0.3640 c         1 MOL      0.163414
    126 O19        -3.8810    2.5120    0.0050 o         1 MOL     -0.491854
    127 C41        -7.0530    2.5880    1.4760 c3        1 MOL     -0.646182
    128 C42        -7.1910    1.1330    2.0350 ca        1 MOL      0.182139
    129 C43        -8.4840    0.4590    2.0250 ca        1 MOL     -0.063902
    130 C44        -6.0750    0.4340    2.6260 ca        1 MOL     -0.063902
    131 C45        -8.6130   -0.7760    2.6930 ca        1 MOL     -0.455678
    132 C46        -6.2050   -0.8650    3.1980 ca        1 MOL     -0.455678
    133 C47        -7.4920   -1.4310    3.3490 ca        1 MOL      0.476924
    134 O20        -7.5960   -2.6230    4.0230 oh        1 MOL     -0.408609
    135 H56        -5.4280    0.9450   -0.4380 hn        1 MOL      0.367243
    136 H57        -6.7600    3.5290   -0.4270 h1        1 MOL     -0.056543
    137 H58        -8.0410    2.9950    1.2830 hc        1 MOL      0.151289
    138 H59        -6.5360    3.1500    2.2600 hc        1 MOL      0.151289
    139 H60        -9.3220    0.8310    1.4540 ha        1 MOL      0.108236
    140 H61        -5.0650    0.8120    2.6490 ha        1 MOL      0.108236
    141 H62        -9.5160   -1.3610    2.7590 ha        1 MOL      0.177942
    142 H63        -5.3810   -1.3390    3.7090 ha        1 MOL      0.177942
    143 H64        -8.5020   -2.9070    4.2020 ho        1 MOL      0.298785
    144 N13        -4.6010    4.4330    1.0010 n         1 MOL     -0.539499
    145 C48        -3.3850    4.9280    1.7060 c3        1 MOL      0.307269
    146 C49        -2.0910    5.1320    0.8820 c         1 MOL      0.281898
    147 O21        -1.2880    5.8770    1.4420 o         1 MOL     -0.453889
    148 C50        -3.2100    4.2210    3.0680 c3        1 MOL     -0.059311
    149 C51        -2.5210    2.8510    3.0900 c3        1 MOL     -0.023942
    150 C52        -2.5130    2.1170    4.3990 c         1 MOL      0.504563
    151 O22        -3.1490    1.0360    4.5310 o         1 MOL     -0.640771
    152 O23        -1.7500    2.4990    5.3620 o         1 MOL     -0.640771
    153 H65        -5.4260    4.8990    1.3590 hn        1 MOL      0.266454
    154 H66        -3.5540    5.9590    2.0160 h1        1 MOL      0.005837
    155 H67        -4.2120    4.0970    3.4900 hc        1 MOL      0.008581
    156 H68        -2.5890    4.8870    3.6710 hc        1 MOL      0.008581
    157 H69        -1.5110    2.9660    2.7090 hc        1 MOL      0.045474
    158 H70        -3.0930    2.2290    2.4060 hc        1 MOL      0.045474
    159 N14        -1.8470    4.5560   -0.3040 n         1 MOL     -0.318086
    160 C53        -0.8050    4.9030   -1.1690 c3        1 MOL     -0.129883
    161 C54        -1.2190    5.8620   -2.3200 c         1 MOL      0.511276
    162 O24        -0.3790    6.2420   -3.1770 o         1 MOL     -0.556029
    163 C55        -0.2030    3.6060   -1.6980 c3        1 MOL     -0.028785
    164 C56         0.1320    2.5400   -0.6660 c3        1 MOL      0.236712
    165 C57         1.3160    2.7550    0.2350 c         1 MOL      0.669612
    166 O25         2.0840    1.8170    0.4710 o         1 MOL     -0.664180
    167 O26         1.5760    3.8540    0.8460 o         1 MOL     -0.664180
    168 H71        -2.5130    3.8290   -0.5230 hn        1 MOL      0.321231
    169 H72        -0.0360    5.4040   -0.5700 h1        1 MOL      0.128609
    170 H73         0.6760    3.7790   -2.3130 hc        1 MOL      0.014122
    171 H74        -0.9510    3.1810   -2.3590 hc        1 MOL      0.014122
    172 H75         0.3160    1.6080   -1.2000 hc        1 MOL     -0.097259
    173 H76        -0.7100    2.3160   -0.0100 hc        1 MOL     -0.097259
    174 N15        -2.4600    6.2360   -2.4250 n         1 MOL     -0.225543
    175 C58        -3.0390    7.0890   -3.4930 c3        1 MOL     -0.270028
    176 H77        -4.1260    7.0100   -3.4710 h1        1 MOL      0.109840
    177 H78        -2.7480    8.1270   -3.3300 h1        1 MOL      0.109840
    178 H79        -2.6710    6.7560   -4.4640 h1        1 MOL      0.109840
    179 H80        -3.1110    5.9080   -1.7230 hn        1 MOL      0.203755
    180 Ca1         4.3100    1.3210    1.5590 Ca        1 MOL      1.789328
    181 O27         6.0510   -0.4570    2.4890 oh        1 MOL     -0.847177
    182 H81         6.8170   -0.4960    1.9140 ho        1 MOL      0.397551
    183 H82         6.1490   -1.2120    3.0700 ho        1 MOL      0.397551
    184 O28         4.1710    3.8420    1.9760 oh        1 MOL     -0.847177
    185 H83         4.7070    4.5480    1.6110 ho        1 MOL      0.397551
    186 H84         3.3000    3.9880    1.6060 ho        1 MOL      0.397551
    187 O29         2.5180    0.7700    3.4870 oh        1 MOL     -0.847177
    188 H85         2.6460    0.1120    4.1800 ho        1 MOL      0.397551
    189 H86         2.1660    1.5330    3.9460 ho        1 MOL      0.397551
    190 O30         5.4420    2.0510    4.1900 oh        1 MOL     -0.847177
    191 H87         5.5260    2.6360    4.9430 ho        1 MOL      0.397551
    192 H88         6.3050    2.0940    3.7550 ho        1 MOL      0.397551
@<TRIPOS>BOND
     1    1    2 1   
     2    1    4 1   
     3    1    5 1   
     4    1    6 1   
     5    2    3 2   
     6    2    7 1   
     7    7    8 1   
     8    7   15 1   
     9    8    9 1   
    10    8   11 1   
    11    8   16 1   
    12    9   10 2   
    13    9   19 1   
    14   11   12 1   
    15   11   17 1   
    16   11   18 1   
    17   12   13 1   
    18   12   14 1   
    19   19   20 1   
    20   19   27 1   
    21   20   21 1   
    22   20   23 1   
    23   20   28 1   
    24   21   22 2   
    25   21   38 1   
    26   23   24 1   
    27   23   25 1   
    28   23   29 1   
    29   24   26 1   
    30   24   30 1   
    31   24   31 1   
    32   25   32 1   
    33   25   33 1   
    34   25   34 1   
    35   26   35 1   
    36   26   36 1   
    37   26   37 1   
    38   38   39 1   
    39   38   46 1   
    40   39   40 1   
    41   39   42 1   
    42   39   47 1   
    43   40   41 2   
    44   40   50 1   
    45   42   43 1   
    46   42   48 1   
    47   42   49 1   
    48   43   44 1   
    49   43   45 1   
    50   50   51 1   
    51   50   54 1   
    52   51   52 1   
    53   51   55 1   
    54   51   56 1   
    55   52   53 2   
    56   52   57 1   
    57   57   58 1   
    58   57   65 1   
    59   58   59 1   
    60   58   61 1   
    61   58   66 1   
    62   59   60 2   
    63   59   69 1   
    64   61   62 1   
    65   61   67 1   
    66   61   68 1   
    67   62   63 1   
    68   62   64 1   
    69   69   70 1   
    70   69   73 1   
    71   70   71 1   
    72   70   74 1   
    73   70   75 1   
    74   71   72 2   
    75   71   76 1   
    76   76   77 1   
    77   76   85 1   
    78   77   78 1   
    79   77   80 1   
    80   77   86 1   
    81   78   79 2   
    82   78   93 1   
    83   80   81 1   
    84   80   87 1   
    85   80   88 1   
    86   81   82 1   
    87   81   89 1   
    88   81   90 1   
    89   82   83 1   
    90   82   84 2   
    91   83   91 1   
    92   83   92 1   
    93   93   94 1   
    94   93  100 1   
    95   94   95 1   
    96   94   97 1   
    97   94  101 1   
    98   95   96 2   
    99   95  109 1   
   100   97   98 1   
   101   97   99 1   
   102   97  102 1   
   103   98  103 1   
   104   98  104 1   
   105   98  105 1   
   106   99  106 1   
   107   99  107 1   
   108   99  108 1   
   109  109  110 1   
   110  109  117 1   
   111  110  111 1   
   112  110  113 1   
   113  110  118 1   
   114  111  112 2   
   115  111  123 1   
   116  113  114 1   
   117  113  119 1   
   118  113  120 1   
   119  114  115 1   
   120  114  116 2   
   121  115  121 1   
   122  115  122 1   
   123  123  124 1   
   124  123  135 1   
   125  124  125 1   
   126  124  127 1   
   127  124  136 1   
   128  125  126 2   
   129  125  144 1   
   130  127  128 1   
   131  127  137 1   
   132  127  138 1   
   133  128  129 ar  
   134  128  130 ar  
   135  129  131 ar  
   136  129  139 1   
   137  130  132 ar  
   138  130  140 1   
   139  131  133 ar  
   140  131  141 1   
   141  132  133 ar  
   142  132  142 1   
   143  133  134 1   
   144  134  143 1   
   145  144  145 1   
   146  144  153 1   
   147  145  146 1   
   148  145  148 1   
   149  145  154 1   
   150  146  147 2   
   151  146  159 1   
   152  148  149 1   
   153  148  155 1   
   154  148  156 1   
   155  149  150 1   
   156  149  157 1   
   157  149  158 1   
   158  150  151 1   
   159  150  152 1   
   160  159  160 1   
   161  159  168 1   
   162  160  161 1   
   163  160  163 1   
   164  160  169 1   
   165  161  162 2   
   166  161  174 1   
   167  163  164 1   
   168  163  170 1   
   169  163  171 1   
   170  164  165 1   
   171  164  172 1   
   172  164  173 1   
   173  165  166 1   
   174  165  167 1   
   175  174  175 1   
   176  174  179 1   
   177  175  176 1   
   178  175  177 1   
   179  175  178 1   
   180  181  182 1   
   181  181  183 1   
   182  184  185 1   
   183  184  186 1   
   184  187  188 1   
   185  187  189 1   
   186  190  191 1   
   187  190  192 1   
@<TRIPOS>SUBSTRUCTURE
     1 MOL         1 TEMP              0 ****  ****    0 ROOT
