@<TRIPOS>MOLECULE
MOL
  192   187     1     0     0
SMALL
resp


@<TRIPOS>ATOM
      1 C1         -3.4280    2.7200   -2.4330 c3        1 MOL     -0.113800
      2 C2         -2.4470    3.2260   -1.4280 c         1 MOL      0.639131
      3 O1         -1.5730    2.5410   -0.9070 o         1 MOL     -0.507745
      4 H1         -3.3430    1.6350   -2.5100 hc        1 MOL      0.012523
      5 H2         -4.4390    2.9830   -2.1200 hc        1 MOL      0.012523
      6 H3         -3.2200    3.1690   -3.4050 hc        1 MOL      0.012523
      7 N1         -2.6380    4.5100   -1.0760 n         1 MOL     -0.366160
      8 C3         -1.8710    5.3470   -0.1930 c3        1 MOL     -0.080494
      9 C4         -0.3670    5.3980   -0.5130 c         1 MOL      0.813302
     10 O2          0.4460    5.4970    0.3580 o         1 MOL     -0.602339
     11 C5         -2.1040    4.9200    1.2720 c3        1 MOL     -0.381243
     12 C6         -3.6170    4.9760    1.6360 c         1 MOL      0.835414
     13 O3         -4.0850    4.1850    2.4450 o         1 MOL     -0.739223
     14 O4         -4.3600    5.8100    1.1010 o         1 MOL     -0.739223
     15 H4         -3.4420    4.9700   -1.4930 hn        1 MOL      0.205852
     16 H5         -2.2690    6.3520   -0.3290 h1        1 MOL      0.069805
     17 H6         -1.6120    5.6590    1.9110 hc        1 MOL      0.128159
     18 H7         -1.7220    3.9190    1.4840 hc        1 MOL      0.128159
     19 N2          0.0160    5.3380   -1.7750 n         1 MOL     -0.779744
     20 C7          1.4680    5.1680   -2.1810 c3        1 MOL      0.264180
     21 C8          2.4380    6.3840   -2.0540 c         1 MOL      0.664620
     22 O5          2.1010    7.4850   -2.4880 o         1 MOL     -0.610127
     23 C9          1.5620    4.3920   -3.5210 c3        1 MOL     -0.070787
     24 C10         0.6290    4.9260   -4.6480 c3        1 MOL      0.146927
     25 C11         1.2550    2.9610   -3.2110 c3        1 MOL     -0.374759
     26 C12         0.7370    6.3680   -5.0670 c3        1 MOL     -0.145417
     27 H8         -0.7140    5.2810   -2.4730 hn        1 MOL      0.342891
     28 H9          1.8760    4.4980   -1.4200 h1        1 MOL      0.088813
     29 H10         2.5860    4.4950   -3.8650 hc        1 MOL      0.095265
     30 H11        -0.4140    4.7920   -4.3810 hc        1 MOL     -0.030273
     31 H12         0.7660    4.3140   -5.5390 hc        1 MOL     -0.030273
     32 H13         0.3040    2.7730   -2.7110 hc        1 MOL      0.112522
     33 H14         1.3370    2.3290   -4.0970 hc        1 MOL      0.112522
     34 H15         1.9830    2.5970   -2.4890 hc        1 MOL      0.112522
     35 H16         0.3870    6.9950   -4.2370 hc        1 MOL      0.018974
     36 H17         1.7990    6.5690   -5.2300 hc        1 MOL      0.018974
     37 H18         0.1490    6.5690   -5.9600 hc        1 MOL      0.018974
     38 N3          3.6300    6.2590   -1.4400 n         1 MOL     -0.649087
     39 C13         4.3800    5.0850   -1.3230 c3        1 MOL     -0.066560
     40 C14         5.0380    5.0010    0.0150 c         1 MOL      0.712954
     41 O6          6.1600    5.4340    0.2790 o         1 MOL     -0.531819
     42 C15         5.4100    4.8680   -2.4980 c3        1 MOL     -0.018069
     43 C16         6.1980    3.6380   -2.4560 c         1 MOL      0.701779
     44 O7          6.1500    2.8140   -1.4770 o         1 MOL     -0.693633
     45 O8          6.9320    3.4210   -3.4330 o         1 MOL     -0.693633
     46 H19         4.0820    7.1530   -1.3460 hn        1 MOL      0.354671
     47 H20         3.7060    4.2210   -1.3720 h1        1 MOL     -0.023768
     48 H21         6.1200    5.6870   -2.5460 hc        1 MOL      0.001964
     49 H22         4.8720    4.8670   -3.4520 hc        1 MOL      0.001964
     50 N4          4.3700    4.5290    1.0570 n         1 MOL     -0.461349
     51 C17         4.8870    4.5380    2.3560 c3        1 MOL     -0.121706
     52 C18         5.8680    3.3820    2.6390 c         1 MOL      0.456685
     53 O9          7.0810    3.6250    2.7650 o         1 MOL     -0.518159
     54 H23         3.4750    4.0630    0.9750 hn        1 MOL      0.311405
     55 H24         4.0920    4.4260    3.0880 h1        1 MOL      0.079015
     56 H25         5.3950    5.5060    2.4850 h1        1 MOL      0.079015
     57 N5          5.3770    2.1490    2.7200 n         1 MOL     -0.309717
     58 C19         6.1780    1.0350    3.2830 c3        1 MOL     -0.006032
     59 C20         7.0730    0.2410    2.2790 c         1 MOL      0.403356
     60 O10         8.1090   -0.3660    2.6420 o         1 MOL     -0.574009
     61 C21         5.2520    0.1260    4.0530 c3        1 MOL     -0.150302
     62 C22         4.0750   -0.3710    3.1940 c         1 MOL      0.737571
     63 O11         4.2690   -0.9650    2.0850 o         1 MOL     -0.703175
     64 O12         2.8980   -0.2190    3.6560 o         1 MOL     -0.703175
     65 H26         4.3700    2.0400    2.6190 hn        1 MOL      0.233167
     66 H27         6.8700    1.4990    3.9920 h1        1 MOL      0.078751
     67 H28         4.8000    0.6710    4.8810 hc        1 MOL      0.010693
     68 H29         5.8090   -0.7780    4.3120 hc        1 MOL      0.010693
     69 N6          6.6430    0.2000    0.9990 n         1 MOL      0.021964
     70 C23         7.2990   -0.5330   -0.0890 c3        1 MOL     -0.285083
     71 C24         7.2530   -2.0610   -0.0180 c         1 MOL      0.528925
     72 O13         8.0120   -2.7470   -0.6500 o         1 MOL     -0.579104
     73 H30         5.8230    0.7360    0.7410 hn        1 MOL      0.153518
     74 H31         8.3560   -0.2750   -0.0980 h1        1 MOL      0.126436
     75 H32         6.8830   -0.2340   -1.0490 h1        1 MOL      0.126436
     76 N7          6.3590   -2.6160    0.7960 n         1 MOL     -0.046633
     77 C25         6.1290   -4.0450    0.9610 c3        1 MOL      0.037681
     78 C26         5.6950   -4.7390   -0.3010 c         1 MOL      0.331538
     79 O14         6.0970   -5.8640   -0.6210 o         1 MOL     -0.514787
     80 C27         7.2690   -4.7960    1.6390 c3        1 MOL     -0.054945
     81 C28         7.4750   -4.2640    3.0520 c3        1 MOL     -0.155718
     82 C29         6.4020   -4.5340    4.1310 c         1 MOL      0.490967
     83 N8          6.3450   -3.7070    5.1800 n         1 MOL     -0.692060
     84 O15         5.6220   -5.4330    3.9440 o         1 MOL     -0.493181
     85 H33         5.7890   -1.9880    1.3540 hn        1 MOL      0.074595
     86 H34         5.3210   -4.1110    1.6760 h1        1 MOL      0.118960
     87 H35         8.2310   -4.6080    1.1610 hc        1 MOL      0.037959
     88 H36         7.0300   -5.8480    1.7960 hc        1 MOL      0.037959
     89 H37         7.7510   -3.2030    3.0110 hc        1 MOL      0.051017
     90 H38         8.4680   -4.5210    3.4070 hc        1 MOL      0.051017
     91 H39         7.1110   -3.0490    5.2480 hn        1 MOL      0.333866
     92 H40         5.6820   -3.8950    5.9140 hn        1 MOL      0.333866
     93 N9          4.9470   -4.0900   -1.1770 n         1 MOL     -0.168701
     94 C30         4.5280   -4.6440   -2.5210 c3        1 MOL     -0.081670
     95 C31         3.0480   -4.4520   -2.8400 c         1 MOL      0.496570
     96 O16         2.6150   -4.7880   -3.9460 o         1 MOL     -0.560152
     97 C32         5.4060   -3.9940   -3.6450 c3        1 MOL      0.321959
     98 C33         5.2830   -2.4330   -3.8170 c3        1 MOL     -0.378379
     99 C34         6.9310   -4.1580   -3.4460 c3        1 MOL     -0.378379
    100 H41         4.6100   -3.1780   -0.9020 hn        1 MOL      0.163545
    101 H42         4.7080   -5.7110   -2.5070 h1        1 MOL      0.093389
    102 H43         5.0810   -4.4680   -4.5700 hc        1 MOL     -0.047365
    103 H44         5.6590   -1.9450   -2.9180 hc        1 MOL      0.091110
    104 H45         5.8030   -2.1860   -4.7440 hc        1 MOL      0.091110
    105 H46         4.2360   -2.1590   -3.9700 hc        1 MOL      0.091110
    106 H47         7.4230   -3.8170   -4.3630 hc        1 MOL      0.091110
    107 H48         7.2110   -3.4780   -2.6370 hc        1 MOL      0.091110
    108 H49         7.1530   -5.2040   -3.2740 hc        1 MOL      0.091110
    109 N10         2.3750   -3.7610   -1.9500 n         1 MOL     -0.384263
    110 C35         1.1720   -2.8260   -2.1070 c3        1 MOL      0.280834
    111 C36         0.2070   -2.9930   -1.0480 c         1 MOL      0.387301
    112 O17         0.5290   -3.1810    0.1150 o         1 MOL     -0.489845
    113 C37         1.6980   -1.3870   -2.1940 c3        1 MOL     -0.170655
    114 C38         0.5420   -0.3980   -2.2510 c         1 MOL      0.481718
    115 N11         0.0730    0.1330   -1.1750 n         1 MOL     -0.591378
    116 O18         0.0710   -0.1190   -3.3610 o         1 MOL     -0.578257
    117 H50         2.8590   -3.5920   -1.0760 hn        1 MOL      0.153429
    118 H51         0.6880   -3.1750   -3.0160 h1        1 MOL      0.031545
    119 H52         2.2620   -1.1470   -3.0970 hc        1 MOL      0.082979
    120 H53         2.2430   -1.1220   -1.2920 hc        1 MOL      0.082979
    121 H54         0.4780   -0.0220   -0.2570 hn        1 MOL      0.314060
    122 H55        -0.5660    0.9130   -1.2990 hn        1 MOL      0.314060
    123 N12        -1.1070   -2.9230   -1.3050 n         1 MOL     -0.456006
    124 C39        -2.0850   -3.1880   -0.2430 c3        1 MOL      0.132163
    125 C40        -3.4730   -3.6180   -0.8240 c         1 MOL      0.541288
    126 O19        -3.8120   -3.3350   -1.9560 o         1 MOL     -0.597975
    127 C41        -2.2150   -1.9430    0.7160 c3        1 MOL      0.157756
    128 C42        -2.6500   -2.2120    2.1220 ca        1 MOL     -0.198945
    129 C43        -4.0030   -2.2630    2.4710 ca        1 MOL     -0.063110
    130 C44        -1.5840   -2.4360    3.0320 ca        1 MOL     -0.063110
    131 C45        -4.2900   -2.4950    3.8190 ca        1 MOL     -0.172951
    132 C46        -1.8340   -2.7330    4.3850 ca        1 MOL     -0.172951
    133 C47        -3.2150   -2.7180    4.7790 ca        1 MOL      0.179123
    134 O20        -3.5210   -3.0790    6.0460 oh        1 MOL     -0.459977
    135 H56        -1.3400   -2.7150   -2.2660 hn        1 MOL      0.285908
    136 H57        -1.7520   -4.0160    0.3780 h1        1 MOL      0.064194
    137 H58        -2.9320   -1.2460    0.2790 hc        1 MOL      0.016240
    138 H59        -1.3230   -1.3220    0.6000 hc        1 MOL      0.016240
    139 H60        -4.8480   -1.9870    1.8600 ha        1 MOL      0.119628
    140 H61        -0.6460   -2.7600    2.6070 ha        1 MOL      0.119628
    141 H62        -5.2960   -2.2530    4.1230 ha        1 MOL      0.138839
    142 H63        -1.0840   -2.9530    5.1300 ha        1 MOL      0.138839
    143 H64        -4.4630   -3.1390    6.2370 ho        1 MOL      0.342310
    144 N13        -4.2710   -4.2850   -0.0850 n         1 MOL     -0.602503
    145 C48        -5.6820   -4.5260   -0.4270 c3        1 MOL      0.180643
    146 C49        -6.6190   -3.7090    0.5380 c         1 MOL      0.402531
    147 O21        -6.9270   -4.0500    1.7200 o         1 MOL     -0.585500
    148 C50        -6.1070   -5.9720   -0.3910 c3        1 MOL      0.124726
    149 C51        -5.3810   -6.8410   -1.4640 c3        1 MOL     -0.222779
    150 C52        -5.8710   -8.3440   -1.3300 c         1 MOL      0.621925
    151 O22        -5.6590   -8.9040   -0.2080 o         1 MOL     -0.682858
    152 O23        -6.4890   -8.8760   -2.3520 o         1 MOL     -0.682858
    153 H65        -3.9340   -4.5940    0.8140 hn        1 MOL      0.331023
    154 H66        -5.8720   -4.2700   -1.4660 h1        1 MOL      0.155206
    155 H67        -7.1760   -6.0870   -0.5800 hc        1 MOL      0.002692
    156 H68        -5.8720   -6.3360    0.6110 hc        1 MOL      0.002692
    157 H69        -4.3410   -6.9290   -1.1490 hc        1 MOL      0.036318
    158 H70        -5.5440   -6.4350   -2.4720 hc        1 MOL      0.036318
    159 N14        -7.0510   -2.4970    0.1520 n         1 MOL     -0.463381
    160 C53        -6.7380   -1.7820   -1.0720 c3        1 MOL     -0.005361
    161 C54        -7.2630   -2.6040   -2.2910 c         1 MOL      0.424267
    162 O24        -8.2300   -3.3190   -2.1530 o         1 MOL     -0.498358
    163 C55        -7.2300   -0.3090   -1.0030 c3        1 MOL      0.041885
    164 C56        -6.2060    0.4080   -0.0540 c3        1 MOL     -0.161886
    165 C57        -6.4870    1.9500   -0.0350 c         1 MOL      1.181469
    166 O25        -5.6040    2.7220    0.1690 o         1 MOL     -0.934833
    167 O26        -7.6430    2.3540   -0.0910 o         1 MOL     -0.934833
    168 H71        -7.6690   -1.9750    0.7550 hn        1 MOL      0.325413
    169 H72        -5.6480   -1.8120   -1.1460 h1        1 MOL      0.087076
    170 H73        -8.2830   -0.1820   -0.7610 hc        1 MOL      0.003471
    171 H74        -6.9340    0.2040   -1.9230 hc        1 MOL      0.003471
    172 H75        -5.1770    0.2920   -0.3760 hc        1 MOL      0.006263
    173 H76        -6.4740    0.1520    0.9780 hc        1 MOL      0.006263
    174 N15        -6.6520   -2.4280   -3.4660 n         1 MOL     -0.285340
    175 C58        -6.9790   -3.1790   -4.6990 c3        1 MOL     -0.398454
    176 H77        -8.0560   -3.1490   -4.8670 h1        1 MOL      0.152438
    177 H78        -6.4670   -2.7260   -5.5480 h1        1 MOL      0.152438
    178 H79        -6.6580   -4.2150   -4.5910 h1        1 MOL      0.152438
    179 H80        -5.9380   -1.7030   -3.5230 hn        1 MOL      0.281097
    180 Ca1        -6.7410    4.4670    1.6110 Ca        1 MOL      1.622993
    181 O27        -6.5000    5.3420    4.0680 oh        1 MOL     -0.778788
    182 H81        -5.9490    4.7840    4.6120 ho        1 MOL      0.372784
    183 H82        -6.5960    6.1460    4.5780 ho        1 MOL      0.372784
    184 O28        -9.4080    4.2820    2.2580 oh        1 MOL     -0.778788
    185 H83        -9.9990    5.0250    2.1380 ho        1 MOL      0.372784
    186 H84        -9.4220    4.1140    3.1990 ho        1 MOL      0.372784
    187 O29        -7.3930    7.0750    1.9250 oh        1 MOL     -0.778788
    188 H85        -6.9300    7.9070    1.9220 ho        1 MOL      0.372784
    189 H86        -8.3060    7.2880    1.7320 ho        1 MOL      0.372784
    190 O30        -6.4550    2.2750    3.3170 oh        1 MOL     -0.778788
    191 H87        -6.4430    1.3670    3.0120 ho        1 MOL      0.372784
    192 H88        -6.3080    2.2150    4.2610 ho        1 MOL      0.372784
@<TRIPOS>BOND
     1    1    2 1   
     2    1    4 1   
     3    1    5 1   
     4    1    6 1   
     5    2    3 2   
     6    2    7 1   
     7    7    8 1   
     8    7   15 1   
     9    8    9 1   
    10    8   11 1   
    11    8   16 1   
    12    9   10 2   
    13    9   19 1   
    14   11   12 1   
    15   11   17 1   
    16   11   18 1   
    17   12   13 1   
    18   12   14 1   
    19   19   20 1   
    20   19   27 1   
    21   20   21 1   
    22   20   23 1   
    23   20   28 1   
    24   21   22 2   
    25   21   38 1   
    26   23   24 1   
    27   23   25 1   
    28   23   29 1   
    29   24   26 1   
    30   24   30 1   
    31   24   31 1   
    32   25   32 1   
    33   25   33 1   
    34   25   34 1   
    35   26   35 1   
    36   26   36 1   
    37   26   37 1   
    38   38   39 1   
    39   38   46 1   
    40   39   40 1   
    41   39   42 1   
    42   39   47 1   
    43   40   41 2   
    44   40   50 1   
    45   42   43 1   
    46   42   48 1   
    47   42   49 1   
    48   43   44 1   
    49   43   45 1   
    50   50   51 1   
    51   50   54 1   
    52   51   52 1   
    53   51   55 1   
    54   51   56 1   
    55   52   53 2   
    56   52   57 1   
    57   57   58 1   
    58   57   65 1   
    59   58   59 1   
    60   58   61 1   
    61   58   66 1   
    62   59   60 2   
    63   59   69 1   
    64   61   62 1   
    65   61   67 1   
    66   61   68 1   
    67   62   63 1   
    68   62   64 1   
    69   69   70 1   
    70   69   73 1   
    71   70   71 1   
    72   70   74 1   
    73   70   75 1   
    74   71   72 2   
    75   71   76 1   
    76   76   77 1   
    77   76   85 1   
    78   77   78 1   
    79   77   80 1   
    80   77   86 1   
    81   78   79 2   
    82   78   93 1   
    83   80   81 1   
    84   80   87 1   
    85   80   88 1   
    86   81   82 1   
    87   81   89 1   
    88   81   90 1   
    89   82   83 1   
    90   82   84 2   
    91   83   91 1   
    92   83   92 1   
    93   93   94 1   
    94   93  100 1   
    95   94   95 1   
    96   94   97 1   
    97   94  101 1   
    98   95   96 2   
    99   95  109 1   
   100   97   98 1   
   101   97   99 1   
   102   97  102 1   
   103   98  103 1   
   104   98  104 1   
   105   98  105 1   
   106   99  106 1   
   107   99  107 1   
   108   99  108 1   
   109  109  110 1   
   110  109  117 1   
   111  110  111 1   
   112  110  113 1   
   113  110  118 1   
   114  111  112 2   
   115  111  123 1   
   116  113  114 1   
   117  113  119 1   
   118  113  120 1   
   119  114  115 1   
   120  114  116 2   
   121  115  121 1   
   122  115  122 1   
   123  123  124 1   
   124  123  135 1   
   125  124  125 1   
   126  124  127 1   
   127  124  136 1   
   128  125  126 2   
   129  125  144 1   
   130  127  128 1   
   131  127  137 1   
   132  127  138 1   
   133  128  129 ar  
   134  128  130 ar  
   135  129  131 ar  
   136  129  139 1   
   137  130  132 ar  
   138  130  140 1   
   139  131  133 ar  
   140  131  141 1   
   141  132  133 ar  
   142  132  142 1   
   143  133  134 1   
   144  134  143 1   
   145  144  145 1   
   146  144  153 1   
   147  145  146 1   
   148  145  148 1   
   149  145  154 1   
   150  146  147 2   
   151  146  159 1   
   152  148  149 1   
   153  148  155 1   
   154  148  156 1   
   155  149  150 1   
   156  149  157 1   
   157  149  158 1   
   158  150  151 1   
   159  150  152 1   
   160  159  160 1   
   161  159  168 1   
   162  160  161 1   
   163  160  163 1   
   164  160  169 1   
   165  161  162 2   
   166  161  174 1   
   167  163  164 1   
   168  163  170 1   
   169  163  171 1   
   170  164  165 1   
   171  164  172 1   
   172  164  173 1   
   173  165  166 1   
   174  165  167 1   
   175  174  175 1   
   176  174  179 1   
   177  175  176 1   
   178  175  177 1   
   179  175  178 1   
   180  181  182 1   
   181  181  183 1   
   182  184  185 1   
   183  184  186 1   
   184  187  188 1   
   185  187  189 1   
   186  190  191 1   
   187  190  192 1   
@<TRIPOS>SUBSTRUCTURE
     1 MOL         1 TEMP              0 ****  ****    0 ROOT
