@<TRIPOS>MOLECULE
MOL
  195   189     1     0     0
SMALL
resp


@<TRIPOS>ATOM
      1 C1         -4.0380    2.8540   -3.9790 c3        1 MOL     -0.543362
      2 C2         -3.2280    2.8590   -2.6300 c         1 MOL      0.718620
      3 O1         -2.7170    1.8510   -2.2670 o         1 MOL     -0.514209
      4 H1         -4.1560    3.8780   -4.3350 hc        1 MOL      0.126134
      5 H2         -3.5000    2.2710   -4.7250 hc        1 MOL      0.126134
      6 H3         -5.0210    2.4140   -3.8120 hc        1 MOL      0.126134
      7 N1         -3.2110    3.9580   -1.8740 n         1 MOL     -0.454742
      8 C3         -2.6650    4.0490   -0.4990 c3        1 MOL     -0.199077
      9 C4         -1.1160    3.9540   -0.4160 c         1 MOL      0.727908
     10 O2         -0.4500    3.3550    0.4310 o         1 MOL     -0.595017
     11 C5         -3.4770    3.2690    0.5730 c3        1 MOL      0.166978
     12 C6         -4.9280    3.6240    0.3990 c         1 MOL      0.468921
     13 O3         -5.3870    4.4420    1.2440 o         1 MOL     -0.670046
     14 O4         -5.6310    3.2320   -0.5410 o         1 MOL     -0.670046
     15 H4         -3.6520    4.7770   -2.2830 hn        1 MOL      0.275059
     16 H5         -2.7420    5.1240   -0.3380 h1        1 MOL      0.113347
     17 H6         -3.0560    3.5680    1.5280 hc        1 MOL      0.014635
     18 H7         -3.3270    2.2010    0.4540 hc        1 MOL      0.014635
     19 N2         -0.4710    4.6030   -1.3460 n         1 MOL     -0.595261
     20 C7          1.0190    4.7540   -1.4800 c3        1 MOL      0.097416
     21 C8          1.5740    5.6460   -0.3320 c         1 MOL      0.622938
     22 O5          0.8470    6.4750    0.1280 o         1 MOL     -0.585116
     23 C9          1.4320    5.2860   -2.8400 c3        1 MOL      0.110175
     24 C10         0.9970    6.7940   -3.0490 c3        1 MOL      0.197396
     25 C11         1.0310    4.3790   -4.0130 c3        1 MOL     -0.205477
     26 C12         1.5730    7.5300   -4.3180 c3        1 MOL     -0.297476
     27 H8         -1.0450    4.9710   -2.0990 hn        1 MOL      0.260462
     28 H9          1.5700    3.8490   -1.2180 h1        1 MOL      0.061556
     29 H10         2.5210    5.2730   -2.7620 hc        1 MOL      0.025874
     30 H11         1.1330    7.4090   -2.1630 hc        1 MOL     -0.041624
     31 H12        -0.0830    6.7860   -3.1940 hc        1 MOL     -0.041624
     32 H13         1.5160    3.4220   -3.8600 hc        1 MOL      0.044296
     33 H14        -0.0610    4.3060   -4.0110 hc        1 MOL      0.044296
     34 H15         1.3800    4.7510   -4.9780 hc        1 MOL      0.044296
     35 H16         2.6150    7.8370   -4.1560 hc        1 MOL      0.058145
     36 H17         1.5710    6.8680   -5.1820 hc        1 MOL      0.058145
     37 H18         0.9730    8.4160   -4.5050 hc        1 MOL      0.058145
     38 N3          2.8480    5.6290    0.1260 n         1 MOL     -0.654871
     39 C13         3.8880    4.6510   -0.2910 c3        1 MOL      0.290816
     40 C14         4.1410    3.6540    0.9060 c         1 MOL      0.349175
     41 O6          4.3840    2.4740    0.6450 o         1 MOL     -0.469041
     42 C15         5.2340    5.2960   -0.7380 c3        1 MOL     -0.310152
     43 C16         5.9810    6.2870    0.1910 c         1 MOL      0.815652
     44 O7          7.0990    6.6840   -0.2540 o         1 MOL     -0.737544
     45 O8          5.4800    6.7630    1.2010 o         1 MOL     -0.737544
     46 H19         3.1250    6.3030    0.8320 hn        1 MOL      0.336743
     47 H20         3.6330    4.0380   -1.1530 h1        1 MOL     -0.013383
     48 H21         5.0360    5.7530   -1.7050 hc        1 MOL      0.046808
     49 H22         5.8910    4.4350   -0.7940 hc        1 MOL      0.046808
     50 N4          4.1760    4.1140    2.1440 n         1 MOL     -0.231237
     51 C17         4.5600    3.1800    3.2560 c3        1 MOL     -0.305894
     52 C18         6.0970    2.8690    3.1890 c         1 MOL      0.633741
     53 O9          6.9640    3.7280    2.9140 o         1 MOL     -0.545692
     54 H23         3.9500    5.0850    2.3350 hn        1 MOL      0.282800
     55 H24         3.9290    2.2940    3.2210 h1        1 MOL      0.131057
     56 H25         4.2890    3.7420    4.1470 h1        1 MOL      0.131057
     57 N5          6.3620    1.6430    3.4350 n         1 MOL     -0.578319
     58 C19         7.6880    0.9850    3.2930 c3        1 MOL      0.224806
     59 C20         8.1940    0.7880    1.8800 c         1 MOL      0.277188
     60 O10         9.3780    0.3780    1.7110 o         1 MOL     -0.531794
     61 C21         7.6760   -0.2790    4.1170 c3        1 MOL     -0.347902
     62 C22         6.6670   -1.3080    3.7470 c         1 MOL      0.742692
     63 O11         6.0180   -1.2350    2.6830 o         1 MOL     -0.713135
     64 O12         6.5550   -2.3950    4.3830 o         1 MOL     -0.713135
     65 H26         5.6090    1.0270    3.7310 hn        1 MOL      0.323037
     66 H27         8.4090    1.6920    3.7200 h1        1 MOL      0.070814
     67 H28         7.6350   -0.0620    5.1810 hc        1 MOL      0.076822
     68 H29         8.7060   -0.6710    4.1100 hc        1 MOL      0.076822
     69 N6          7.4320    1.1210    0.8490 n         1 MOL     -0.014429
     70 C23         7.6070    0.7670   -0.5840 c3        1 MOL     -0.378994
     71 C24         7.6110   -0.7180   -0.9140 c         1 MOL      0.600013
     72 O13         7.8240   -1.0730   -2.0790 o         1 MOL     -0.606227
     73 H30         6.4890    1.4200    1.0530 hn        1 MOL      0.144425
     74 H31         8.6060    1.0560   -0.9110 h1        1 MOL      0.154573
     75 H32         6.7950    1.1850   -1.1780 h1        1 MOL      0.154573
     76 N7          7.2830   -1.6130   -0.0000 n         1 MOL     -0.209637
     77 C25         7.2780   -3.1030   -0.1760 c3        1 MOL     -0.063096
     78 C26         6.4010   -3.5560   -1.4130 c         1 MOL      0.520984
     79 O14         6.7660   -4.6220   -1.9740 o         1 MOL     -0.525448
     80 C27         8.8050   -3.6830   -0.0990 c3        1 MOL      0.085387
     81 C28         8.9540   -4.1610    1.3750 c3        1 MOL     -0.166752
     82 C29        10.3120   -4.7840    1.6380 c         1 MOL      0.564859
     83 N8         11.3700   -4.0420    1.9520 n         1 MOL     -0.753041
     84 O15        10.4540   -6.0150    1.5210 o         1 MOL     -0.578437
     85 H33         7.0090   -1.2600    0.8970 hn        1 MOL      0.199028
     86 H34         6.7520   -3.5290    0.6800 h1        1 MOL      0.118587
     87 H35         9.5160   -2.8640   -0.2410 hc        1 MOL      0.014866
     88 H36         9.0160   -4.4810   -0.8060 hc        1 MOL      0.014866
     89 H37         8.2000   -4.9430    1.4750 hc        1 MOL      0.077126
     90 H38         8.7740   -3.3270    2.0540 hc        1 MOL      0.077126
     91 H39        11.2770   -3.0480    2.0150 hn        1 MOL      0.351041
     92 H40        12.2170   -4.5730    2.0760 hn        1 MOL      0.351041
     93 N9          5.2670   -2.9160   -1.7590 n         1 MOL     -0.337291
     94 C30         4.4140   -3.3580   -2.8780 c3        1 MOL     -0.341492
     95 C31         2.9540   -3.0570   -2.5520 c         1 MOL      0.689153
     96 O16         2.0590   -3.6260   -3.1510 o         1 MOL     -0.589861
     97 C32         4.7790   -2.7840   -4.2420 c3        1 MOL      0.344396
     98 C33         4.6910   -1.2260   -4.2920 c3        1 MOL     -0.247500
     99 C34         6.1440   -3.1800   -4.6790 c3        1 MOL     -0.247500
    100 H41         5.0260   -2.0440   -1.2910 hn        1 MOL      0.183045
    101 H42         4.4730   -4.4450   -2.9560 h1        1 MOL      0.160928
    102 H43         4.0700   -3.1480   -4.9860 hc        1 MOL     -0.028367
    103 H44         3.6050   -1.1080   -4.2540 hc        1 MOL      0.050614
    104 H45         5.1530   -0.7400   -3.4450 hc        1 MOL      0.050614
    105 H46         4.9770   -0.8570   -5.2800 hc        1 MOL      0.050614
    106 H47         6.2390   -4.2430   -4.9230 hc        1 MOL      0.050614
    107 H48         6.3580   -2.7270   -5.6520 hc        1 MOL      0.050614
    108 H49         6.8610   -2.9100   -3.9160 hc        1 MOL      0.050614
    109 N10         2.6960   -2.1900   -1.6260 n         1 MOL     -0.414777
    110 C35         1.3340   -1.5970   -1.3620 c3        1 MOL      0.110625
    111 C36         0.5070   -2.3330   -0.2500 c         1 MOL      0.549881
    112 O17         1.1360   -2.9560    0.6770 o         1 MOL     -0.540188
    113 C37         1.5500   -0.0550   -1.0840 c3        1 MOL     -0.102685
    114 C38         2.3600    0.6560   -2.1060 c         1 MOL      0.581412
    115 N11         3.4480    1.1480   -1.6770 n         1 MOL     -0.518977
    116 O18         2.0540    0.6990   -3.2990 o         1 MOL     -0.616172
    117 H50         3.4160   -1.9650   -0.9570 hn        1 MOL      0.263998
    118 H51         0.8030   -1.7560   -2.2920 h1        1 MOL      0.076943
    119 H52         1.9140    0.1510   -0.0820 hc        1 MOL      0.039207
    120 H53         0.5420    0.3650   -1.1760 hc        1 MOL      0.039207
    121 H54         3.5980    1.2730   -0.6820 hn        1 MOL      0.284659
    122 H55         3.9620    1.5860   -2.4230 hn        1 MOL      0.284659
    123 N12        -0.8110   -2.3150   -0.4100 n         1 MOL     -0.639954
    124 C39        -1.7720   -3.0190    0.4480 c3        1 MOL      0.528691
    125 C40        -3.0800   -3.3670   -0.3100 c         1 MOL      0.439697
    126 O19        -3.4590   -2.6380   -1.2370 o         1 MOL     -0.573297
    127 C41        -2.0160   -2.1940    1.7320 c3        1 MOL     -0.358894
    128 C42        -2.8890   -2.9200    2.7380 ca        1 MOL      0.014124
    129 C43        -4.1330   -2.4280    3.0640 ca        1 MOL     -0.044472
    130 C44        -2.4130   -4.0860    3.3740 ca        1 MOL     -0.044472
    131 C45        -4.8700   -2.9400    4.1370 ca        1 MOL     -0.372880
    132 C46        -3.1940   -4.6350    4.4060 ca        1 MOL     -0.372880
    133 C47        -4.4200   -4.1110    4.8440 ca        1 MOL      0.440519
    134 O20        -4.9550   -4.5700    5.9760 oh        1 MOL     -0.517458
    135 H56        -1.1560   -1.6290   -1.0560 hn        1 MOL      0.320248
    136 H57        -1.3500   -3.9870    0.7220 h1        1 MOL     -0.023257
    137 H58        -2.5710   -1.3450    1.3410 hc        1 MOL      0.115683
    138 H59        -1.1240   -1.7470    2.1570 hc        1 MOL      0.115683
    139 H60        -4.4950   -1.5330    2.5750 ha        1 MOL      0.121166
    140 H61        -1.4350   -4.4760    3.1180 ha        1 MOL      0.121166
    141 H62        -5.8020   -2.4410    4.3480 ha        1 MOL      0.162920
    142 H63        -2.7950   -5.5060    4.9010 ha        1 MOL      0.162920
    143 H64        -5.7080   -4.0500    6.2810 ho        1 MOL      0.375136
    144 N13        -3.8590   -4.3380    0.1410 n         1 MOL     -0.534331
    145 C48        -5.0780   -4.8020   -0.4920 c3        1 MOL      0.352154
    146 C49        -6.3130   -4.8270    0.4350 c         1 MOL      0.485430
    147 O21        -6.5710   -5.8130    1.1310 o         1 MOL     -0.558157
    148 C50        -4.9170   -6.2490   -1.0410 c3        1 MOL      0.003827
    149 C51        -4.0270   -6.4700   -2.2740 c3        1 MOL     -0.162177
    150 C52        -4.1750   -7.9440   -2.7160 c         1 MOL      0.701492
    151 O22        -4.5660   -8.8620   -1.9350 o         1 MOL     -0.680443
    152 O23        -3.9700   -8.2000   -3.9230 o         1 MOL     -0.680443
    153 H65        -3.6390   -4.8020    1.0160 hn        1 MOL      0.280974
    154 H66        -5.3290   -4.0600   -1.2570 h1        1 MOL      0.026018
    155 H67        -5.9390   -6.5310   -1.2790 hc        1 MOL      0.006042
    156 H68        -4.5320   -6.9370   -0.2880 hc        1 MOL      0.006042
    157 H69        -2.9860   -6.3150   -1.9900 hc        1 MOL      0.019780
    158 H70        -4.2880   -5.8530   -3.1330 hc        1 MOL      0.019780
    159 N14        -7.1760   -3.7820    0.6220 n         1 MOL     -0.574895
    160 C53        -7.2040   -2.4720   -0.1140 c3        1 MOL      0.096930
    161 C54        -7.5510   -2.7180   -1.5960 c         1 MOL      0.352156
    162 O24        -8.1880   -3.6800   -1.9700 o         1 MOL     -0.493840
    163 C55        -8.2140   -1.5080    0.4490 c3        1 MOL      0.096222
    164 C56        -7.6800   -1.0000    1.8150 c3        1 MOL     -0.465095
    165 C57        -8.2050    0.4010    2.0860 c         1 MOL      0.958061
    166 O25        -9.3670    0.5440    2.5300 o         1 MOL     -0.755950
    167 O26        -7.4250    1.3180    1.8450 o         1 MOL     -0.755950
    168 H71        -7.9820   -4.0140    1.1910 hn        1 MOL      0.345438
    169 H72        -6.1940   -2.0670   -0.0310 h1        1 MOL      0.066623
    170 H73        -9.2100   -1.9260    0.5150 hc        1 MOL     -0.002104
    171 H74        -8.3560   -0.7630   -0.3320 hc        1 MOL     -0.002104
    172 H75        -6.5880   -1.0290    1.7630 hc        1 MOL      0.081594
    173 H76        -7.9850   -1.6380    2.6460 hc        1 MOL      0.081594
    174 N15        -6.9980   -1.8560   -2.4190 n         1 MOL     -0.203496
    175 C58        -6.8480   -1.8900   -3.9160 c3        1 MOL     -0.360047
    176 H77        -6.5420   -2.8880   -4.2280 h1        1 MOL      0.148155
    177 H78        -7.8010   -1.6420   -4.3830 h1        1 MOL      0.148155
    178 H79        -6.0930   -1.1670   -4.2230 h1        1 MOL      0.148155
    179 H80        -6.4980   -1.1070   -1.9540 hn        1 MOL      0.259734
    180 Ca1        -7.8580    3.6680    0.8350 Ca        1 MOL      1.685661
    181 O27        -7.0170    3.5490    3.4260 oh        1 MOL     -0.830789
    182 H81        -6.5690    4.2210    3.9380 ho        1 MOL      0.386739
    183 H82        -7.5460    3.0790    4.0740 ho        1 MOL      0.386739
    184 O28        -9.8970    3.3010    2.5260 oh        1 MOL     -0.830789
    185 H83       -10.4510    3.6150    3.2420 ho        1 MOL      0.386739
    186 H84        -9.9580    2.3460    2.5740 ho        1 MOL      0.386739
    187 O29        -8.1450    1.9570   -1.1110 oh        1 MOL     -0.830789
    188 H85        -7.3300    1.5670   -1.4410 ho        1 MOL      0.386739
    189 H86        -8.8390    1.4620   -1.5410 ho        1 MOL      0.386739
    190 O30       -10.1410    4.2270   -0.4720 oh        1 MOL     -0.830789
    191 H87       -10.7110    4.9840   -0.2980 ho        1 MOL      0.386739
    192 H88       -10.2950    4.0290   -1.3940 ho        1 MOL      0.386739
    193 O31        -8.8140    6.1870    1.5210 oh        1 MOL     -0.830789
    194 H89        -9.7310    6.2910    1.2710 ho        1 MOL      0.386739
    195 H90        -8.5550    7.0510    1.8420 ho        1 MOL      0.386739
@<TRIPOS>BOND
     1    1    2 1   
     2    1    4 1   
     3    1    5 1   
     4    1    6 1   
     5    2    3 2   
     6    2    7 1   
     7    7    8 1   
     8    7   15 1   
     9    8    9 1   
    10    8   11 1   
    11    8   16 1   
    12    9   10 2   
    13    9   19 1   
    14   11   12 1   
    15   11   17 1   
    16   11   18 1   
    17   12   13 1   
    18   12   14 1   
    19   19   20 1   
    20   19   27 1   
    21   20   21 1   
    22   20   23 1   
    23   20   28 1   
    24   21   22 2   
    25   21   38 1   
    26   23   24 1   
    27   23   25 1   
    28   23   29 1   
    29   24   26 1   
    30   24   30 1   
    31   24   31 1   
    32   25   32 1   
    33   25   33 1   
    34   25   34 1   
    35   26   35 1   
    36   26   36 1   
    37   26   37 1   
    38   38   39 1   
    39   38   46 1   
    40   39   40 1   
    41   39   42 1   
    42   39   47 1   
    43   40   41 2   
    44   40   50 1   
    45   42   43 1   
    46   42   48 1   
    47   42   49 1   
    48   43   44 1   
    49   43   45 1   
    50   50   51 1   
    51   50   54 1   
    52   51   52 1   
    53   51   55 1   
    54   51   56 1   
    55   52   53 2   
    56   52   57 1   
    57   57   58 1   
    58   57   65 1   
    59   58   59 1   
    60   58   61 1   
    61   58   66 1   
    62   59   60 2   
    63   59   69 1   
    64   61   62 1   
    65   61   67 1   
    66   61   68 1   
    67   62   63 1   
    68   62   64 1   
    69   69   70 1   
    70   69   73 1   
    71   70   71 1   
    72   70   74 1   
    73   70   75 1   
    74   71   72 2   
    75   71   76 1   
    76   76   77 1   
    77   76   85 1   
    78   77   78 1   
    79   77   80 1   
    80   77   86 1   
    81   78   79 2   
    82   78   93 1   
    83   80   81 1   
    84   80   87 1   
    85   80   88 1   
    86   81   82 1   
    87   81   89 1   
    88   81   90 1   
    89   82   83 1   
    90   82   84 2   
    91   83   91 1   
    92   83   92 1   
    93   93   94 1   
    94   93  100 1   
    95   94   95 1   
    96   94   97 1   
    97   94  101 1   
    98   95   96 2   
    99   95  109 1   
   100   97   98 1   
   101   97   99 1   
   102   97  102 1   
   103   98  103 1   
   104   98  104 1   
   105   98  105 1   
   106   99  106 1   
   107   99  107 1   
   108   99  108 1   
   109  109  110 1   
   110  109  117 1   
   111  110  111 1   
   112  110  113 1   
   113  110  118 1   
   114  111  112 2   
   115  111  123 1   
   116  113  114 1   
   117  113  119 1   
   118  113  120 1   
   119  114  115 1   
   120  114  116 2   
   121  115  121 1   
   122  115  122 1   
   123  123  124 1   
   124  123  135 1   
   125  124  125 1   
   126  124  127 1   
   127  124  136 1   
   128  125  126 2   
   129  125  144 1   
   130  127  128 1   
   131  127  137 1   
   132  127  138 1   
   133  128  129 ar  
   134  128  130 ar  
   135  129  131 ar  
   136  129  139 1   
   137  130  132 ar  
   138  130  140 1   
   139  131  133 ar  
   140  131  141 1   
   141  132  133 ar  
   142  132  142 1   
   143  133  134 1   
   144  134  143 1   
   145  144  145 1   
   146  144  153 1   
   147  145  146 1   
   148  145  148 1   
   149  145  154 1   
   150  146  147 2   
   151  146  159 1   
   152  148  149 1   
   153  148  155 1   
   154  148  156 1   
   155  149  150 1   
   156  149  157 1   
   157  149  158 1   
   158  150  151 1   
   159  150  152 1   
   160  159  160 1   
   161  159  168 1   
   162  160  161 1   
   163  160  163 1   
   164  160  169 1   
   165  161  162 2   
   166  161  174 1   
   167  163  164 1   
   168  163  170 1   
   169  163  171 1   
   170  164  165 1   
   171  164  172 1   
   172  164  173 1   
   173  165  166 1   
   174  165  167 1   
   175  174  175 1   
   176  174  179 1   
   177  175  176 1   
   178  175  177 1   
   179  175  178 1   
   180  181  182 1   
   181  181  183 1   
   182  184  185 1   
   183  184  186 1   
   184  187  188 1   
   185  187  189 1   
   186  190  191 1   
   187  190  192 1   
   188  193  194 1   
   189  193  195 1   
@<TRIPOS>SUBSTRUCTURE
     1 MOL         1 TEMP              0 ****  ****    0 ROOT
