@<TRIPOS>MOLECULE
MOL
  181   177     1     0     0
SMALL
resp


@<TRIPOS>ATOM
      1 C1          4.8990   -4.7300    4.5810 c3        1 MOL     -0.376706
      2 C2          4.6300   -3.7030    3.4270 c         1 MOL      0.714375
      3 O1          4.0630   -2.6790    3.6700 o         1 MOL     -0.588157
      4 H1          5.9240   -4.6200    4.9340 hc        1 MOL      0.084168
      5 H2          4.2100   -4.5410    5.4050 hc        1 MOL      0.084168
      6 H3          4.7510   -5.7440    4.2080 hc        1 MOL      0.084168
      7 N1          5.0530   -3.8610    2.1970 n         1 MOL     -0.452340
      8 C3          5.8810   -4.8960    1.6450 c3        1 MOL     -0.204476
      9 C4          5.5750   -5.0400    0.1100 c         1 MOL      0.544261
     10 O2          4.4820   -4.7460   -0.3880 o         1 MOL     -0.448980
     11 C5          7.3510   -4.5200    1.8920 c3        1 MOL     -0.010159
     12 C6          7.7930   -3.1800    1.3290 c         1 MOL      0.450816
     13 O3          8.1740   -3.1300    0.1530 o         1 MOL     -0.603183
     14 O4          7.9060   -2.1710    2.0740 o         1 MOL     -0.603183
     15 H4          4.8650   -3.1100    1.5460 hn        1 MOL      0.407383
     16 H5          5.5990   -5.8710    2.0380 h1        1 MOL      0.130972
     17 H6          7.9150   -5.3580    1.4680 hc        1 MOL     -0.000195
     18 H7          7.7080   -4.4770    2.9210 hc        1 MOL     -0.000195
     19 N2          6.5240   -5.6230   -0.6340 n         1 MOL     -0.534463
     20 C7          6.4520   -5.7570   -2.1230 c3        1 MOL      0.249706
     21 C8          5.9900   -4.5330   -2.9220 c         1 MOL      0.402494
     22 O5          5.6210   -4.5670   -4.0650 o         1 MOL     -0.527075
     23 C9          5.6830   -7.0620   -2.3870 c3        1 MOL     -0.416864
     24 H8          7.3840   -5.9310   -0.1940 hn        1 MOL      0.324169
     25 H9          7.5020   -5.8260   -2.3910 h1        1 MOL      0.019293
     26 H10         6.0470   -7.9270   -1.8430 hc        1 MOL      0.114917
     27 H11         4.6430   -6.8490   -2.1690 hc        1 MOL      0.114917
     28 H12         5.7410   -7.2680   -3.4610 hc        1 MOL      0.114917
     29 N3          6.1860   -3.3330   -2.3090 n         1 MOL     -0.037502
     30 C10         5.8980   -2.0150   -2.8710 c3        1 MOL     -0.010261
     31 C11         7.0900   -1.0550   -2.9220 c         1 MOL      0.422876
     32 O6          8.1410   -1.2950   -2.2660 o         1 MOL     -0.571187
     33 C12         4.8000   -1.4040   -2.0580 c3        1 MOL     -0.038704
     34 C13         5.1440   -1.3860   -0.5570 c         1 MOL      0.758961
     35 O7          6.1860   -0.8580   -0.1220 o         1 MOL     -0.717861
     36 O8          4.3840   -1.8720    0.2600 o         1 MOL     -0.717861
     37 H13         6.5220   -3.3440   -1.3620 hn        1 MOL     -0.031488
     38 H14         5.6070   -2.0950   -3.9130 h1        1 MOL      0.037368
     39 H15         3.8460   -1.9250   -2.1630 hc        1 MOL      0.032293
     40 H16         4.5990   -0.4130   -2.4570 hc        1 MOL      0.032293
     41 N4          6.8920    0.1130   -3.6320 n         1 MOL     -0.311275
     42 C14         7.6540    1.3740   -3.6740 c3        1 MOL     -0.310418
     43 C15         7.4380    2.1490   -2.3970 c         1 MOL      0.643756
     44 O9          7.6780    1.6480   -1.2830 o         1 MOL     -0.626486
     45 H17         6.0090    0.1580   -4.1140 hn        1 MOL      0.287036
     46 H18         7.2960    1.9310   -4.5330 h1        1 MOL      0.137896
     47 H19         8.7290    1.1900   -3.7280 h1        1 MOL      0.137896
     48 N5          7.0800    3.4340   -2.5400 n         1 MOL     -0.494806
     49 C16         6.8080    4.4290   -1.4520 c3        1 MOL      0.138644
     50 C17         5.3810    4.2030   -0.9780 c         1 MOL      0.698640
     51 O10         4.4700    4.2030   -1.8410 o         1 MOL     -0.545552
     52 C18         6.9620    5.8780   -1.9290 c3        1 MOL     -0.402143
     53 C19         6.8890    6.9090   -0.8730 c         1 MOL      0.711509
     54 N6          6.8700    8.1860   -1.2900 n         1 MOL     -0.798617
     55 O11         6.8470    6.5610    0.3520 o         1 MOL     -0.570054
     56 H20         7.0290    3.7770   -3.4890 hn        1 MOL      0.280493
     57 H21         7.5560    4.2040   -0.6830 h1        1 MOL      0.049803
     58 H22         6.1530    6.1080   -2.6300 hc        1 MOL      0.123709
     59 H23         7.9170    5.9510   -2.4610 hc        1 MOL      0.123709
     60 H24         7.0230    8.4160   -2.2570 hn        1 MOL      0.369749
     61 H25         6.7550    8.9570   -0.6410 hn        1 MOL      0.369749
     62 N7          5.0630    4.0570    0.3270 n         1 MOL     -0.692054
     63 C20         3.7480    3.8160    0.8590 c3        1 MOL      0.232225
     64 C21         2.7190    4.8990    0.6710 c         1 MOL      0.607184
     65 O12         3.0110    5.9300    0.0770 o         1 MOL     -0.531285
     66 H26         5.8140    4.2240    0.9800 hn        1 MOL      0.370782
     67 H27         3.8160    3.5680    1.9210 h1        1 MOL      0.031472
     68 H28         3.3400    2.9400    0.3620 h1        1 MOL      0.031472
     69 N8          1.4690    4.7370    1.1690 n         1 MOL     -0.635269
     70 C22         0.8620    3.5230    1.7780 c3        1 MOL      0.124904
     71 C23        -0.5330    3.0810    1.2010 c         1 MOL      0.574544
     72 O13        -1.1290    3.7780    0.3410 o         1 MOL     -0.505680
     73 C24         0.6610    3.7100    3.3040 c3        1 MOL      0.380885
     74 C25         1.8830    3.8890    4.1600 c3        1 MOL     -0.267966
     75 O14        -0.1680    4.7940    3.5910 oh        1 MOL     -0.603263
     76 H29         0.8270    5.4730    0.9000 hn        1 MOL      0.349365
     77 H30         1.5390    2.6960    1.5880 h1        1 MOL      0.000281
     78 H31         0.0650    2.8380    3.5980 h1        1 MOL     -0.046135
     79 H32        -0.6190    4.6200    4.4140 ho        1 MOL      0.401247
     80 H33         1.6750    4.2190    5.1780 hc        1 MOL      0.050925
     81 H34         2.3900    2.9300    4.2850 hc        1 MOL      0.050925
     82 H35         2.6180    4.5560    3.7240 hc        1 MOL      0.050925
     83 N9         -1.1170    1.9330    1.6890 n         1 MOL     -0.557315
     84 C26        -2.5000    1.5080    1.4040 c3        1 MOL     -0.100143
     85 C27        -3.5910    2.3750    2.0750 c         1 MOL      0.809576
     86 O15        -3.3920    2.9230    3.1330 o         1 MOL     -0.648687
     87 C28        -2.6730    0.0010    1.7050 c3        1 MOL      0.015427
     88 C29        -2.5270   -0.1960    3.3060 c3        1 MOL      0.096050
     89 C30        -1.6560   -0.8850    0.9450 c3        1 MOL     -0.176167
     90 C31        -2.5770   -1.6570    3.7580 c3        1 MOL     -0.104133
     91 H36        -0.5380    1.3570    2.2820 hn        1 MOL      0.298615
     92 H37        -2.6340    1.5970    0.3310 h1        1 MOL      0.174836
     93 H38        -3.6560   -0.3610    1.4100 hc        1 MOL      0.078635
     94 H39        -3.3590    0.2350    3.8600 hc        1 MOL     -0.018180
     95 H40        -1.6280    0.2490    3.7390 hc        1 MOL     -0.018180
     96 H41        -1.9280   -1.9300    1.0940 hc        1 MOL      0.060495
     97 H42        -1.7580   -0.6480   -0.1090 hc        1 MOL      0.060495
     98 H43        -0.6790   -0.6450    1.3720 hc        1 MOL      0.060495
     99 H44        -1.7970   -2.3010    3.3670 hc        1 MOL      0.008509
    100 H45        -2.4290   -1.6800    4.8340 hc        1 MOL      0.008509
    101 H46        -3.5690   -2.0370    3.4980 hc        1 MOL      0.008509
    102 N10        -4.7510    2.4590    1.4930 n         1 MOL     -0.769103
    103 C32        -5.2010    2.0170    0.1910 c3        1 MOL      0.281922
    104 C33        -6.6180    1.3990    0.1900 c         1 MOL      0.501666
    105 O16        -7.1180    1.1610    1.2570 o         1 MOL     -0.539760
    106 C34        -5.1300    3.2050   -0.7630 c3        1 MOL      0.009282
    107 C35        -6.1320    4.3500   -0.4780 c         1 MOL      0.735315
    108 O17        -6.3770    4.7310    0.6620 o         1 MOL     -0.723783
    109 O18        -6.5840    4.8670   -1.4660 o         1 MOL     -0.723783
    110 H47        -5.4190    2.9770    2.0560 hn        1 MOL      0.381651
    111 H48        -4.5460    1.2230   -0.1510 h1        1 MOL     -0.055019
    112 H49        -5.3040    2.8780   -1.7890 hc        1 MOL     -0.041687
    113 H50        -4.0770    3.4500   -0.8490 hc        1 MOL     -0.041687
    114 N11        -7.3020    1.3100   -0.9390 n         1 MOL     -0.564986
    115 C36        -8.6820    0.7730   -1.1310 c3        1 MOL      0.471543
    116 C37        -8.7590   -0.2260   -2.2460 c         1 MOL      0.249225
    117 O19        -8.3390    0.1410   -3.3360 o         1 MOL     -0.496160
    118 C38        -9.6680    1.9230   -1.4460 c3        1 MOL     -0.131042
    119 C39       -11.1520    1.6830   -1.2400 ca        1 MOL      0.154750
    120 C40       -11.9700    1.5220   -2.3500 ca        1 MOL     -0.218644
    121 C41       -11.8050    1.6460    0.0450 ca        1 MOL     -0.218644
    122 C42       -13.3620    1.2170   -2.2350 ca        1 MOL     -0.079098
    123 C43       -13.1850    1.4600    0.1920 ca        1 MOL     -0.079098
    124 C44       -13.9400    1.2820   -0.9460 ca        1 MOL     -0.158665
    125 H51        -6.8220    1.6610   -1.7530 hn        1 MOL      0.286719
    126 H52        -9.0250    0.2550   -0.2420 h1        1 MOL     -0.041503
    127 H53        -9.6060    2.2590   -2.4730 hc        1 MOL      0.049217
    128 H54        -9.3600    2.7870   -0.8430 hc        1 MOL      0.049217
    129 H55       -11.5620    1.5740   -3.3550 ha        1 MOL      0.144650
    130 H56       -11.3060    1.8790    0.9680 ha        1 MOL      0.144650
    131 H57       -13.9180    1.0640   -3.1430 ha        1 MOL      0.096880
    132 H58       -13.5980    1.5570    1.1810 ha        1 MOL      0.096880
    133 H59       -15.0140    1.3130   -0.7870 ha        1 MOL      0.086121
    134 N12        -9.5590   -1.3030   -2.1520 n         1 MOL     -0.032438
    135 C45       -10.3090   -1.7230   -0.9460 c3        1 MOL      0.052150
    136 C46        -9.3950   -2.0910    0.2330 c         1 MOL      0.435630
    137 O20        -9.7280   -1.7780    1.3720 o         1 MOL     -0.533258
    138 C47       -11.1030   -2.9340   -1.3880 c3        1 MOL     -0.036311
    139 C48       -11.3330   -2.8200   -2.8230 c3        1 MOL     -0.037872
    140 C49       -10.0920   -2.0400   -3.2830 c3        1 MOL     -0.150173
    141 H60       -10.9320   -0.8890   -0.6210 h1        1 MOL      0.055856
    142 H61       -10.4560   -3.7940   -1.2080 hc        1 MOL      0.025763
    143 H62       -11.9670   -2.9340   -0.7230 hc        1 MOL      0.025763
    144 H63       -11.3360   -3.7850   -3.3280 hc        1 MOL      0.023126
    145 H64       -12.3210   -2.3910   -2.9760 hc        1 MOL      0.023126
    146 H65        -9.3040   -2.6910   -3.6650 h1        1 MOL      0.075141
    147 H66       -10.2830   -1.3780   -4.1240 h1        1 MOL      0.075141
    148 N13        -8.2580   -2.6640   -0.1510 n         1 MOL     -0.330978
    149 C50        -7.2500   -3.1310    0.8720 c3        1 MOL      0.072780
    150 C51        -7.7290   -4.4480    1.6480 c         1 MOL      0.393546
    151 O21        -7.9890   -5.4570    1.0610 o         1 MOL     -0.552493
    152 C52        -5.8830   -3.4420    0.1760 c3        1 MOL      0.119332
    153 C53        -5.2870   -2.2640   -0.6300 c3        1 MOL     -0.030739
    154 C54        -3.9670   -2.5510   -1.1740 c         1 MOL      0.767918
    155 O22        -3.4000   -3.6150   -0.9840 o         1 MOL     -0.700943
    156 O23        -3.4160   -1.7070   -1.9140 o         1 MOL     -0.700943
    157 H67        -8.1850   -3.0660   -1.0690 hn        1 MOL      0.277787
    158 H68        -7.0410   -2.4270    1.6780 h1        1 MOL      0.101389
    159 H69        -5.8770   -4.3480   -0.4340 hc        1 MOL     -0.030619
    160 H70        -5.1540   -3.6500    0.9610 hc        1 MOL     -0.030619
    161 H71        -5.2300   -1.3840    0.0080 hc        1 MOL     -0.066556
    162 H72        -6.0590   -2.0320   -1.3660 hc        1 MOL     -0.066556
    163 N14        -7.9460   -4.3730    2.9690 n         1 MOL     -0.292633
    164 C55        -7.8520   -3.2550    3.8730 c3        1 MOL     -0.137321
    165 H73        -8.6550   -3.3150    4.6080 h1        1 MOL      0.079071
    166 H74        -6.8900   -3.2790    4.3820 h1        1 MOL      0.079071
    167 H75        -7.9440   -2.3250    3.3110 h1        1 MOL      0.079071
    168 H76        -8.2990   -5.2760    3.2540 hn        1 MOL      0.238831
    169 Ca1         8.7540   -0.4810    0.1700 Ca        1 MOL      1.801050
    170 O24         8.1600    1.1660    2.2080 oh        1 MOL     -0.841714
    171 H77         8.2340    1.0980    3.1590 ho        1 MOL      0.394875
    172 H78         8.0260    2.0960    2.0400 ho        1 MOL      0.394875
    173 O25        10.7980   -2.1890   -0.6130 oh        1 MOL     -0.841714
    174 H79        11.6590   -2.1350   -1.0280 ho        1 MOL      0.394875
    175 H80        10.6910   -3.1260   -0.4320 ho        1 MOL      0.394875
    176 O26        10.8750   -0.5170    1.9810 oh        1 MOL     -0.841714
    177 H81        11.7960   -0.3430    2.1930 ho        1 MOL      0.394875
    178 H82        10.5460   -1.0170    2.7320 ho        1 MOL      0.394875
    179 O27        10.6990    1.3640   -0.6630 oh        1 MOL     -0.841714
    180 H83        11.4380    1.6650   -0.1400 ho        1 MOL      0.394875
    181 H84        10.9700    1.5180   -1.5680 ho        1 MOL      0.394875
@<TRIPOS>BOND
     1    1    2 1   
     2    1    4 1   
     3    1    5 1   
     4    1    6 1   
     5    2    3 2   
     6    2    7 1   
     7    7    8 1   
     8    7   15 1   
     9    8    9 1   
    10    8   11 1   
    11    8   16 1   
    12    9   10 2   
    13    9   19 1   
    14   11   12 1   
    15   11   17 1   
    16   11   18 1   
    17   12   13 1   
    18   12   14 1   
    19   19   20 1   
    20   19   24 1   
    21   20   21 1   
    22   20   23 1   
    23   20   25 1   
    24   21   22 2   
    25   21   29 1   
    26   23   26 1   
    27   23   27 1   
    28   23   28 1   
    29   29   30 1   
    30   29   37 1   
    31   30   31 1   
    32   30   33 1   
    33   30   38 1   
    34   31   32 2   
    35   31   41 1   
    36   33   34 1   
    37   33   39 1   
    38   33   40 1   
    39   34   35 1   
    40   34   36 1   
    41   41   42 1   
    42   41   45 1   
    43   42   43 1   
    44   42   46 1   
    45   42   47 1   
    46   43   44 2   
    47   43   48 1   
    48   48   49 1   
    49   48   56 1   
    50   49   50 1   
    51   49   52 1   
    52   49   57 1   
    53   50   51 2   
    54   50   62 1   
    55   52   53 1   
    56   52   58 1   
    57   52   59 1   
    58   53   54 1   
    59   53   55 2   
    60   54   60 1   
    61   54   61 1   
    62   62   63 1   
    63   62   66 1   
    64   63   64 1   
    65   63   67 1   
    66   63   68 1   
    67   64   65 2   
    68   64   69 1   
    69   69   70 1   
    70   69   76 1   
    71   70   71 1   
    72   70   73 1   
    73   70   77 1   
    74   71   72 2   
    75   71   83 1   
    76   73   74 1   
    77   73   75 1   
    78   73   78 1   
    79   74   80 1   
    80   74   81 1   
    81   74   82 1   
    82   75   79 1   
    83   83   84 1   
    84   83   91 1   
    85   84   85 1   
    86   84   87 1   
    87   84   92 1   
    88   85   86 2   
    89   85  102 1   
    90   87   88 1   
    91   87   89 1   
    92   87   93 1   
    93   88   90 1   
    94   88   94 1   
    95   88   95 1   
    96   89   96 1   
    97   89   97 1   
    98   89   98 1   
    99   90   99 1   
   100   90  100 1   
   101   90  101 1   
   102  102  103 1   
   103  102  110 1   
   104  103  104 1   
   105  103  106 1   
   106  103  111 1   
   107  104  105 2   
   108  104  114 1   
   109  106  107 1   
   110  106  112 1   
   111  106  113 1   
   112  107  108 1   
   113  107  109 1   
   114  114  115 1   
   115  114  125 1   
   116  115  116 1   
   117  115  118 1   
   118  115  126 1   
   119  116  117 2   
   120  116  134 1   
   121  118  119 1   
   122  118  127 1   
   123  118  128 1   
   124  119  120 ar  
   125  119  121 ar  
   126  120  122 ar  
   127  120  129 1   
   128  121  123 ar  
   129  121  130 1   
   130  122  124 ar  
   131  122  131 1   
   132  123  124 ar  
   133  123  132 1   
   134  124  133 1   
   135  134  135 1   
   136  134  140 1   
   137  135  136 1   
   138  135  138 1   
   139  135  141 1   
   140  136  137 2   
   141  136  148 1   
   142  138  139 1   
   143  138  142 1   
   144  138  143 1   
   145  139  140 1   
   146  139  144 1   
   147  139  145 1   
   148  140  146 1   
   149  140  147 1   
   150  148  149 1   
   151  148  157 1   
   152  149  150 1   
   153  149  152 1   
   154  149  158 1   
   155  150  151 2   
   156  150  163 1   
   157  152  153 1   
   158  152  159 1   
   159  152  160 1   
   160  153  154 1   
   161  153  161 1   
   162  153  162 1   
   163  154  155 1   
   164  154  156 1   
   165  163  164 1   
   166  163  168 1   
   167  164  165 1   
   168  164  166 1   
   169  164  167 1   
   170  170  171 1   
   171  170  172 1   
   172  173  174 1   
   173  173  175 1   
   174  176  177 1   
   175  176  178 1   
   176  179  180 1   
   177  179  181 1   
@<TRIPOS>SUBSTRUCTURE
     1 MOL         1 TEMP              0 ****  ****    0 ROOT
