@<TRIPOS>MOLECULE
MOL
  195   189     1     0     0
SMALL
resp


@<TRIPOS>ATOM
      1 C1          1.0400    3.4150    3.5510 c3        1 MOL     -0.263278
      2 C2          0.5000    3.6880    2.1130 c         1 MOL      0.681238
      3 O1         -0.1220    2.7940    1.4960 o         1 MOL     -0.473361
      4 H1          2.0970    3.1520    3.4980 hc        1 MOL      0.056505
      5 H2          0.9200    4.3110    4.1600 hc        1 MOL      0.056505
      6 H3          0.4830    2.5930    4.0000 hc        1 MOL      0.056505
      7 N1          0.8050    4.8560    1.4390 n         1 MOL     -0.691926
      8 C3          0.2170    5.2310    0.1430 c3        1 MOL      0.182574
      9 C4         -1.3590    5.0250    0.1600 c         1 MOL      0.634629
     10 O2         -1.8380    4.2790   -0.7490 o         1 MOL     -0.543976
     11 C5          0.9690    4.6170   -1.0040 c3        1 MOL     -0.289922
     12 C6          2.4790    4.8420   -0.9900 c         1 MOL      0.843630
     13 O3          3.2460    3.9500   -1.3700 o         1 MOL     -0.792745
     14 O4          2.8800    5.9490   -0.5870 o         1 MOL     -0.792745
     15 H4          1.3050    5.5460    1.9870 hn        1 MOL      0.309317
     16 H5          0.2790    6.2980   -0.0520 h1        1 MOL      0.056438
     17 H6          0.5800    5.0580   -1.9220 hc        1 MOL      0.095408
     18 H7          0.7700    3.5500   -0.9900 hc        1 MOL      0.095408
     19 N2         -2.1740    5.6380    1.0810 n         1 MOL     -0.599847
     20 C7         -3.6750    5.4740    1.1260 c3        1 MOL     -0.211424
     21 C8         -4.3730    6.5770    0.2470 c         1 MOL      0.649875
     22 O5         -3.8730    7.6960    0.1190 o         1 MOL     -0.566252
     23 C9         -4.2570    5.4110    2.5770 c3        1 MOL     -0.042804
     24 C10        -3.8800    6.6980    3.3940 c3        1 MOL      0.177143
     25 C11        -3.6760    4.1880    3.3130 c3        1 MOL     -0.159462
     26 C12        -4.5220    6.8440    4.8390 c3        1 MOL     -0.365003
     27 H8         -1.6670    6.0730    1.8460 hn        1 MOL      0.291504
     28 H9         -3.8280    4.4950    0.6830 h1        1 MOL      0.291855
     29 H10        -5.3320    5.2840    2.6910 hc        1 MOL      0.139922
     30 H11        -4.0340    7.6220    2.8370 hc        1 MOL     -0.007393
     31 H12        -2.8340    6.7560    3.6420 hc        1 MOL     -0.007393
     32 H13        -4.0250    4.1070    4.3350 hc        1 MOL      0.032584
     33 H14        -3.9760    3.3360    2.6960 hc        1 MOL      0.032584
     34 H15        -2.5900    4.1550    3.3080 hc        1 MOL      0.032584
     35 H16        -5.5950    6.6590    4.9040 hc        1 MOL      0.082592
     36 H17        -4.0660    6.0600    5.4390 hc        1 MOL      0.082592
     37 H18        -4.2140    7.8170    5.2040 hc        1 MOL      0.082592
     38 N3         -5.6170    6.4410   -0.3450 n         1 MOL     -0.741550
     39 C13        -6.5110    5.3000   -0.0790 c3        1 MOL      0.596096
     40 C14        -6.0090    3.9910   -0.6330 c         1 MOL      0.535872
     41 O6         -6.0990    3.0250    0.1120 o         1 MOL     -0.539839
     42 C15        -7.8830    5.6290   -0.6650 c3        1 MOL     -0.361262
     43 C16        -8.9850    4.6170   -0.3440 c         1 MOL      0.763879
     44 O7        -10.1270    4.7680   -0.8510 o         1 MOL     -0.729890
     45 O8         -8.7370    3.6660    0.4110 o         1 MOL     -0.729890
     46 H19        -6.0440    7.2230   -0.8000 hn        1 MOL      0.329615
     47 H20        -6.6480    5.1870    0.9900 h1        1 MOL     -0.119259
     48 H21        -7.7470    5.6500   -1.7520 hc        1 MOL      0.024759
     49 H22        -8.2220    6.5890   -0.2880 hc        1 MOL      0.024759
     50 N4         -5.1860    4.0870   -1.6760 n         1 MOL     -0.415936
     51 C17        -4.5350    2.8980   -2.2800 c3        1 MOL     -0.228775
     52 C18        -5.6080    1.8430   -2.8010 c         1 MOL      0.670215
     53 O9         -6.4820    2.2740   -3.5740 o         1 MOL     -0.587563
     54 H23        -5.1710    4.9310   -2.2360 hn        1 MOL      0.274950
     55 H24        -3.9720    2.4450   -1.4670 h1        1 MOL      0.121151
     56 H25        -3.9790    3.1120   -3.1840 h1        1 MOL      0.121151
     57 N5         -5.3940    0.5750   -2.4880 n         1 MOL     -0.617100
     58 C19        -6.0390   -0.5440   -3.0400 c3        1 MOL      0.259642
     59 C20        -6.7920   -1.4240   -2.0060 c         1 MOL      0.337267
     60 O10        -7.5840   -2.2010   -2.4600 o         1 MOL     -0.520970
     61 C21        -5.0130   -1.4560   -3.7580 c3        1 MOL     -0.178577
     62 C22        -3.8800   -1.9550   -2.8640 c         1 MOL      0.718033
     63 O11        -3.8640   -1.8580   -1.6250 o         1 MOL     -0.699361
     64 O12        -2.9280   -2.5430   -3.4310 o         1 MOL     -0.699361
     65 H26        -4.5440    0.4520   -1.9510 hn        1 MOL      0.305534
     66 H27        -6.7730   -0.2450   -3.7880 h1        1 MOL      0.057675
     67 H28        -4.5680   -0.9320   -4.6110 hc        1 MOL      0.011554
     68 H29        -5.6340   -2.2780   -4.0970 hc        1 MOL      0.011554
     69 N6         -6.6400   -1.2290   -0.7070 n         1 MOL     -0.065707
     70 C23        -7.2070   -2.0570    0.3460 c3        1 MOL     -0.431973
     71 C24        -6.7630   -3.5220    0.4570 c         1 MOL      0.581917
     72 O13        -7.4450   -4.3790    0.9820 o         1 MOL     -0.565477
     73 H30        -6.0460   -0.5000   -0.3290 hn        1 MOL      0.207454
     74 H31        -8.2880   -2.0500    0.2310 h1        1 MOL      0.161413
     75 H32        -6.9820   -1.5150    1.2620 h1        1 MOL      0.161413
     76 N7         -5.6150   -3.9390   -0.1740 n         1 MOL     -0.103293
     77 C25        -5.0520   -5.2990   -0.3180 c3        1 MOL      0.145570
     78 C26        -4.4260   -5.9030    0.9950 c         1 MOL      0.410630
     79 O14        -4.6430   -7.0610    1.3690 o         1 MOL     -0.513597
     80 C27        -5.9830   -6.2800   -1.0790 c3        1 MOL     -0.194610
     81 C28        -6.5500   -5.7930   -2.4010 c3        1 MOL      0.045558
     82 C29        -7.5050   -6.8300   -3.1210 c         1 MOL      0.686610
     83 N8         -7.8900   -6.4240   -4.3250 n         1 MOL     -0.855791
     84 O15        -7.7480   -7.9500   -2.7100 o         1 MOL     -0.581453
     85 H33        -5.0260   -3.2320   -0.5850 hn        1 MOL      0.096038
     86 H34        -4.2110   -5.0340   -0.9680 h1        1 MOL      0.087142
     87 H35        -6.8760   -6.4380   -0.4810 hc        1 MOL      0.056813
     88 H36        -5.4260   -7.1920   -1.3020 hc        1 MOL      0.056813
     89 H37        -5.6770   -5.6460   -3.0330 hc        1 MOL     -0.008797
     90 H38        -7.1660   -4.9050   -2.3020 hc        1 MOL     -0.008797
     91 H39        -7.5520   -5.5380   -4.6730 hn        1 MOL      0.363852
     92 H40        -8.6290   -6.9310   -4.7970 hn        1 MOL      0.363852
     93 N9         -3.7550   -5.0880    1.8460 n         1 MOL     -0.290594
     94 C30        -3.2190   -5.3620    3.1990 c3        1 MOL     -0.204768
     95 C31        -1.8650   -4.8190    3.4110 c         1 MOL      0.664236
     96 O16        -1.2010   -5.3130    4.2900 o         1 MOL     -0.571157
     97 C32        -4.3340   -4.9420    4.2810 c3        1 MOL      0.318872
     98 C33        -4.6130   -3.4800    4.2840 c3        1 MOL     -0.322026
     99 C34        -5.6990   -5.6530    4.1850 c3        1 MOL     -0.322026
    100 H41        -3.6130   -4.1850    1.4160 hn        1 MOL      0.112017
    101 H42        -3.1770   -6.4480    3.2530 h1        1 MOL      0.142890
    102 H43        -3.9370   -5.2010    5.2690 hc        1 MOL     -0.050548
    103 H44        -5.2020   -3.3270    3.3750 hc        1 MOL      0.073243
    104 H45        -5.2020   -3.1290    5.1360 hc        1 MOL      0.073243
    105 H46        -3.6510   -2.9720    4.2660 hc        1 MOL      0.073243
    106 H47        -6.2080   -5.4010    3.2480 hc        1 MOL      0.073243
    107 H48        -5.4470   -6.7060    4.2580 hc        1 MOL      0.073243
    108 H49        -6.2870   -5.2910    5.0240 hc        1 MOL      0.073243
    109 N10        -1.5370   -3.7120    2.6950 n         1 MOL     -0.584197
    110 C35        -0.1030   -3.2480    2.5540 c3        1 MOL      0.441248
    111 C36         0.5740   -3.8370    1.2240 c         1 MOL      0.446393
    112 O17        -0.0770   -4.5580    0.4380 o         1 MOL     -0.536418
    113 C37        -0.1920   -1.7030    2.6530 c3        1 MOL     -0.443225
    114 C38         1.1290   -0.9680    3.1350 c         1 MOL      0.646577
    115 N11         1.1590   -0.3230    4.3070 n         1 MOL     -0.793344
    116 O18         2.1780   -1.0380    2.5060 o         1 MOL     -0.495805
    117 H50        -2.2590   -3.1650    2.2550 hn        1 MOL      0.373734
    118 H51         0.4530   -3.7340    3.3530 h1        1 MOL     -0.016177
    119 H52        -0.8410   -1.5390    3.5090 hc        1 MOL      0.107570
    120 H53        -0.6070   -1.1700    1.7790 hc        1 MOL      0.107570
    121 H54         0.2840    0.0280    4.6680 hn        1 MOL      0.366664
    122 H55         2.0280    0.0030    4.7090 hn        1 MOL      0.366664
    123 N12         1.7600   -3.3380    0.9950 n         1 MOL     -0.447572
    124 C39         2.6200   -3.8450   -0.1340 c3        1 MOL      0.079300
    125 C40         4.0970   -3.6430    0.0920 c         1 MOL      0.575435
    126 O19         4.4630   -2.6990    0.7630 o         1 MOL     -0.554341
    127 C41         2.1490   -3.1620   -1.4320 c3        1 MOL     -0.029954
    128 C42         2.7560   -1.7410   -1.7640 ca        1 MOL      0.035651
    129 C43         2.4440   -0.5940   -1.0170 ca        1 MOL     -0.137917
    130 C44         3.6860   -1.6310   -2.8070 ca        1 MOL     -0.137917
    131 C45         2.9570    0.6820   -1.3750 ca        1 MOL     -0.252271
    132 C46         4.1640   -0.4080   -3.2130 ca        1 MOL     -0.252271
    133 C47         3.8380    0.6990   -2.4470 ca        1 MOL      0.318249
    134 O20         4.4070    1.9600   -2.7140 oh        1 MOL     -0.610010
    135 H56         2.1460   -2.6870    1.6650 hn        1 MOL      0.253304
    136 H57         2.6320   -4.9290   -0.2250 h1        1 MOL      0.060225
    137 H58         1.0730   -3.1740   -1.5620 hc        1 MOL      0.046010
    138 H59         2.5170   -3.8560   -2.1800 hc        1 MOL      0.046010
    139 H60         1.7410   -0.7440   -0.2180 ha        1 MOL      0.135627
    140 H61         3.9620   -2.5230   -3.3440 ha        1 MOL      0.135627
    141 H62         2.8110    1.6180   -0.8620 ha        1 MOL      0.144640
    142 H63         4.7720   -0.2490   -4.0890 ha        1 MOL      0.144640
    143 H64         3.9340    2.6340   -2.2290 ho        1 MOL      0.476253
    144 N13         4.9510   -4.5080   -0.5520 n         1 MOL     -0.624321
    145 C48         6.4240   -4.3450   -0.5710 c3        1 MOL      0.143971
    146 C49         6.9490   -3.4760   -1.7300 c         1 MOL      0.741766
    147 O21         6.6710   -3.7770   -2.8810 o         1 MOL     -0.596989
    148 C50         7.1650   -5.6820   -0.4580 c3        1 MOL     -0.322419
    149 C51         8.5180   -5.3810    0.0410 c3        1 MOL     -0.035725
    150 C52         9.3740   -6.6130   -0.1540 c         1 MOL      0.680051
    151 O22         9.2020   -7.6290    0.5640 o         1 MOL     -0.718333
    152 O23        10.2730   -6.5720   -1.0380 o         1 MOL     -0.718333
    153 H65         4.4480   -5.2680   -1.0070 hn        1 MOL      0.326987
    154 H66         6.7090   -3.8550    0.3610 h1        1 MOL      0.115934
    155 H67         7.2220   -6.1520   -1.4440 hc        1 MOL      0.100928
    156 H68         6.6130   -6.2940    0.2560 hc        1 MOL      0.100928
    157 H69         8.4570   -5.1520    1.1110 hc        1 MOL      0.006650
    158 H70         8.9310   -4.5330   -0.5120 hc        1 MOL      0.006650
    159 N14         7.6760   -2.3090   -1.5750 n         1 MOL     -0.592437
    160 C53         7.5020   -1.2870   -0.5400 c3        1 MOL      0.103381
    161 C54         8.0930   -1.6470    0.8380 c         1 MOL      0.449968
    162 O24         9.1130   -2.3650    0.9470 o         1 MOL     -0.507244
    163 C55         8.0300    0.0580   -1.0500 c3        1 MOL     -0.263477
    164 C56         7.7610    1.2090   -0.0830 c3        1 MOL      0.101084
    165 C57         7.9460    2.5960   -0.7900 c         1 MOL      0.737225
    166 O25         6.8920    3.2400   -1.0780 o         1 MOL     -0.743170
    167 O26         9.1190    3.1020   -0.8860 o         1 MOL     -0.743170
    168 H71         8.0700   -1.9660   -2.4330 hn        1 MOL      0.306715
    169 H72         6.4450   -1.0620   -0.4310 h1        1 MOL      0.069667
    170 H73         7.7210    0.2930   -2.0650 hc        1 MOL      0.095993
    171 H74         9.1110   -0.0880   -1.0370 hc        1 MOL      0.095993
    172 H75         8.3960    1.2130    0.7950 hc        1 MOL     -0.045149
    173 H76         6.7260    1.2460    0.2400 hc        1 MOL     -0.045149
    174 N15         7.3560   -1.3390    1.9110 n         1 MOL     -0.274821
    175 C58         7.5630   -1.5780    3.3270 c3        1 MOL     -0.149510
    176 H77         8.6210   -1.7630    3.5120 h1        1 MOL      0.080421
    177 H78         7.2430   -0.7040    3.8940 h1        1 MOL      0.080421
    178 H79         6.9830   -2.4470    3.6380 h1        1 MOL      0.080421
    179 H80         6.4710   -0.8990    1.7260 hn        1 MOL      0.241861
    180 Ca1         5.3960    5.1700   -0.4600 Ca        1 MOL      1.805597
    181 O27         7.2040    5.0600    1.4630 oh        1 MOL     -0.896823
    182 O28         5.6610    8.0580   -0.7620 oh        1 MOL     -0.896823
    183 H81         7.3420    4.5210    2.2420 ho        1 MOL      0.421302
    184 H82         5.0370    8.7890   -0.7510 ho        1 MOL      0.421302
    185 H83         7.9040    5.7160    1.5040 ho        1 MOL      0.421302
    186 H84         6.1880    8.2000   -1.5480 ho        1 MOL      0.421302
    187 O29         5.0580    3.0390    1.1310 oh        1 MOL     -0.896823
    188 H85         5.0440    2.1800    0.7190 ho        1 MOL      0.421302
    189 H86         4.7090    2.8820    2.0140 ho        1 MOL      0.421302
    190 O30         8.2470    5.4470   -1.4520 oh        1 MOL     -0.896823
    191 H87         8.1620    4.5560   -1.0970 ho        1 MOL      0.421302
    192 H88         9.1870    5.5410   -1.6300 ho        1 MOL      0.421302
    193 O31         5.2670    6.0040   -3.0020 oh        1 MOL     -0.896823
    194 H89         5.5390    6.9040   -3.2090 ho        1 MOL      0.421302
    195 H90         4.9910    5.6430   -3.8390 ho        1 MOL      0.421302
@<TRIPOS>BOND
     1    1    2 1   
     2    1    4 1   
     3    1    5 1   
     4    1    6 1   
     5    2    3 2   
     6    2    7 1   
     7    7    8 1   
     8    7   15 1   
     9    8    9 1   
    10    8   11 1   
    11    8   16 1   
    12    9   10 2   
    13    9   19 1   
    14   11   12 1   
    15   11   17 1   
    16   11   18 1   
    17   12   13 1   
    18   12   14 1   
    19   19   20 1   
    20   19   27 1   
    21   20   21 1   
    22   20   23 1   
    23   20   28 1   
    24   21   22 2   
    25   21   38 1   
    26   23   24 1   
    27   23   25 1   
    28   23   29 1   
    29   24   26 1   
    30   24   30 1   
    31   24   31 1   
    32   25   32 1   
    33   25   33 1   
    34   25   34 1   
    35   26   35 1   
    36   26   36 1   
    37   26   37 1   
    38   38   39 1   
    39   38   46 1   
    40   39   40 1   
    41   39   42 1   
    42   39   47 1   
    43   40   41 2   
    44   40   50 1   
    45   42   43 1   
    46   42   48 1   
    47   42   49 1   
    48   43   44 1   
    49   43   45 1   
    50   50   51 1   
    51   50   54 1   
    52   51   52 1   
    53   51   55 1   
    54   51   56 1   
    55   52   53 2   
    56   52   57 1   
    57   57   58 1   
    58   57   65 1   
    59   58   59 1   
    60   58   61 1   
    61   58   66 1   
    62   59   60 2   
    63   59   69 1   
    64   61   62 1   
    65   61   67 1   
    66   61   68 1   
    67   62   63 1   
    68   62   64 1   
    69   69   70 1   
    70   69   73 1   
    71   70   71 1   
    72   70   74 1   
    73   70   75 1   
    74   71   72 2   
    75   71   76 1   
    76   76   77 1   
    77   76   85 1   
    78   77   78 1   
    79   77   80 1   
    80   77   86 1   
    81   78   79 2   
    82   78   93 1   
    83   80   81 1   
    84   80   87 1   
    85   80   88 1   
    86   81   82 1   
    87   81   89 1   
    88   81   90 1   
    89   82   83 1   
    90   82   84 2   
    91   83   91 1   
    92   83   92 1   
    93   93   94 1   
    94   93  100 1   
    95   94   95 1   
    96   94   97 1   
    97   94  101 1   
    98   95   96 2   
    99   95  109 1   
   100   97   98 1   
   101   97   99 1   
   102   97  102 1   
   103   98  103 1   
   104   98  104 1   
   105   98  105 1   
   106   99  106 1   
   107   99  107 1   
   108   99  108 1   
   109  109  110 1   
   110  109  117 1   
   111  110  111 1   
   112  110  113 1   
   113  110  118 1   
   114  111  112 2   
   115  111  123 1   
   116  113  114 1   
   117  113  119 1   
   118  113  120 1   
   119  114  115 1   
   120  114  116 2   
   121  115  121 1   
   122  115  122 1   
   123  123  124 1   
   124  123  135 1   
   125  124  125 1   
   126  124  127 1   
   127  124  136 1   
   128  125  126 2   
   129  125  144 1   
   130  127  128 1   
   131  127  137 1   
   132  127  138 1   
   133  128  129 ar  
   134  128  130 ar  
   135  129  131 ar  
   136  129  139 1   
   137  130  132 ar  
   138  130  140 1   
   139  131  133 ar  
   140  131  141 1   
   141  132  133 ar  
   142  132  142 1   
   143  133  134 1   
   144  134  143 1   
   145  144  145 1   
   146  144  153 1   
   147  145  146 1   
   148  145  148 1   
   149  145  154 1   
   150  146  147 2   
   151  146  159 1   
   152  148  149 1   
   153  148  155 1   
   154  148  156 1   
   155  149  150 1   
   156  149  157 1   
   157  149  158 1   
   158  150  151 1   
   159  150  152 1   
   160  159  160 1   
   161  159  168 1   
   162  160  161 1   
   163  160  163 1   
   164  160  169 1   
   165  161  162 2   
   166  161  174 1   
   167  163  164 1   
   168  163  170 1   
   169  163  171 1   
   170  164  165 1   
   171  164  172 1   
   172  164  173 1   
   173  165  166 1   
   174  165  167 1   
   175  174  175 1   
   176  174  179 1   
   177  175  176 1   
   178  175  177 1   
   179  175  178 1   
   180  181  183 1   
   181  181  185 1   
   182  182  184 1   
   183  182  186 1   
   184  187  188 1   
   185  187  189 1   
   186  190  191 1   
   187  190  192 1   
   188  193  194 1   
   189  193  195 1   
@<TRIPOS>SUBSTRUCTURE
     1 MOL         1 TEMP              0 ****  ****    0 ROOT
