@<TRIPOS>MOLECULE
MOL
  192   187     1     0     0
SMALL
resp


@<TRIPOS>ATOM
      1 C1         -9.5120    1.1690   -2.0370 c3        1 MOL     -0.574716
      2 C2         -8.5630    0.8840   -0.9110 c         1 MOL      0.755819
      3 O1         -7.5000    0.3790   -1.2440 o         1 MOL     -0.637518
      4 H1         -9.6200    0.2770   -2.6550 hc        1 MOL      0.143694
      5 H2        -10.4850    1.4480   -1.6310 hc        1 MOL      0.143694
      6 H3         -9.1230    1.9860   -2.6440 hc        1 MOL      0.143694
      7 N1         -8.9420    1.0750    0.4210 n         1 MOL     -0.446838
      8 C3         -8.0350    0.7130    1.4530 c3        1 MOL     -0.076197
      9 C4         -7.9860   -0.8260    1.5820 c         1 MOL      0.529268
     10 O2         -8.6670   -1.4310    2.4110 o         1 MOL     -0.502123
     11 C5         -8.3390    1.3490    2.8010 c3        1 MOL     -0.083886
     12 C6         -9.7210    1.2940    3.3330 c         1 MOL      0.685111
     13 O3         -9.7750    1.2220    4.5420 o         1 MOL     -0.645840
     14 O4        -10.7230    1.3480    2.6250 o         1 MOL     -0.645840
     15 H4         -9.8700    1.3610    0.7000 hn        1 MOL      0.230773
     16 H5         -7.0850    1.1550    1.1280 h1        1 MOL      0.090322
     17 H6         -7.9970    2.3940    2.7680 hc        1 MOL      0.052654
     18 H7         -7.6110    0.9230    3.5010 hc        1 MOL      0.052654
     19 N2         -7.0870   -1.5130    0.8170 n         1 MOL     -0.349455
     20 C7         -6.8240   -2.9410    0.8680 c3        1 MOL      0.132112
     21 C8         -5.3220   -3.3960    0.9360 c         1 MOL      0.502172
     22 O5         -5.0680   -4.4390    1.5390 o         1 MOL     -0.555899
     23 C9         -7.4400   -3.5280   -0.4190 c3        1 MOL     -0.085083
     24 C10        -9.0010   -3.4900   -0.6350 c3        1 MOL     -0.036225
     25 C11        -9.3210   -3.8210   -2.1010 c3        1 MOL     -0.021460
     26 C12       -10.8130   -3.8810   -2.3920 c3        1 MOL      0.088753
     27 N3        -11.0580   -4.4100   -3.7250 n4        1 MOL     -0.238978
     28 H8         -6.6950   -0.9550    0.0620 hn        1 MOL      0.253451
     29 H9         -7.2750   -3.4260    1.7310 h1        1 MOL      0.075113
     30 H10        -6.9970   -4.5060   -0.5970 hc        1 MOL      0.012450
     31 H11        -7.0880   -2.8850   -1.2360 hc        1 MOL      0.012450
     32 H12        -9.3160   -2.4700   -0.4030 hc        1 MOL      0.035215
     33 H13        -9.4900   -4.1560    0.0730 hc        1 MOL      0.035215
     34 H14        -8.8810   -4.7810   -2.3580 hc        1 MOL      0.021021
     35 H15        -8.8060   -3.0600   -2.6820 hc        1 MOL      0.021021
     36 H16       -11.1910   -2.8670   -2.3770 hx        1 MOL      0.062346
     37 H17       -11.3910   -4.4530   -1.6630 hx        1 MOL      0.062346
     38 H18       -10.6750   -3.8340   -4.4710 hn        1 MOL      0.241412
     39 H19       -10.6830   -5.3310   -3.8880 hn        1 MOL      0.241412
     40 H20       -12.0350   -4.6040   -3.8660 hn        1 MOL      0.241412
     41 N4         -4.3960   -2.5350    0.5820 n         1 MOL     -0.431892
     42 C13        -4.4480   -1.5120   -0.5040 c3        1 MOL      0.067918
     43 C14        -4.3640   -0.0970    0.0880 c         1 MOL      0.029566
     44 O6         -4.2080    0.0750    1.3090 o         1 MOL     -0.390528
     45 C15        -3.2390   -1.7350   -1.4610 c3        1 MOL     -0.227143
     46 C16        -1.9500   -1.8480   -0.6180 c         1 MOL      0.821228
     47 O7         -1.1650   -0.9030   -0.4570 o         1 MOL     -0.738943
     48 O8         -1.6720   -2.9960   -0.1600 o         1 MOL     -0.738943
     49 H21        -3.4560   -2.7960    0.8150 hn        1 MOL      0.381224
     50 H22        -5.3370   -1.6170   -1.1380 h1        1 MOL      0.113106
     51 H23        -3.1150   -0.9130   -2.1540 hc        1 MOL      0.035835
     52 H24        -3.4950   -2.6670   -1.9770 hc        1 MOL      0.035835
     53 N5         -4.3290    0.9480   -0.7340 n         1 MOL     -0.138568
     54 C17        -4.1280    2.3310   -0.3700 c3        1 MOL     -0.211674
     55 C18        -2.7140    2.7030    0.0740 c         1 MOL      0.793424
     56 O9         -1.8750    1.8600    0.1560 o         1 MOL     -0.588476
     57 H25        -4.5830    0.7820   -1.7040 hn        1 MOL      0.280325
     58 H26        -4.8410    2.5860    0.4270 h1        1 MOL      0.092316
     59 H27        -4.3830    2.9410   -1.2350 h1        1 MOL      0.092316
     60 N6         -2.6010    4.0180    0.4410 n         1 MOL     -0.611049
     61 C19        -1.4020    4.8020    0.8240 c3        1 MOL      0.352582
     62 C20        -1.4800    6.2410    0.3520 c         1 MOL      0.393538
     63 O10        -2.5050    6.9190    0.3190 o         1 MOL     -0.508496
     64 C21        -1.0920    4.7160    2.3320 c3        1 MOL     -0.196673
     65 C22        -0.9340    3.2190    2.7290 c         1 MOL      0.650017
     66 O11         0.0940    2.6130    2.2710 o         1 MOL     -0.673695
     67 O12        -1.6830    2.6310    3.5650 o         1 MOL     -0.673695
     68 H28        -3.4450    4.5780    0.4190 hn        1 MOL      0.276911
     69 H29        -0.4990    4.3680    0.3810 h1        1 MOL     -0.044450
     70 H30        -1.8840    5.2040    2.9050 hc        1 MOL      0.059037
     71 H31        -0.1650    5.2380    2.5700 hc        1 MOL      0.059037
     72 N7         -0.3570    6.9580    0.1340 n         1 MOL     -0.441695
     73 C23         1.0230    6.5010    0.1840 c3        1 MOL      0.088676
     74 C24         1.4070    5.6210   -1.0340 c         1 MOL      0.507038
     75 O13         0.7460    5.5110   -2.0910 o         1 MOL     -0.475147
     76 H32        -0.4580    7.9460   -0.0390 hn        1 MOL      0.323216
     77 H33         1.1370    5.8040    1.0270 h1        1 MOL      0.015394
     78 H34         1.6670    7.3710    0.2360 h1        1 MOL      0.015394
     79 N8          2.6000    4.9990   -0.9350 n         1 MOL     -0.539981
     80 C25         3.1080    4.0080   -1.8570 c3        1 MOL      0.079948
     81 C26         2.1790    2.8080   -2.0300 c         1 MOL      0.917280
     82 O14         1.4600    2.3740   -1.1100 o         1 MOL     -0.785298
     83 C27         4.4960    3.5130   -1.4550 c3        1 MOL      0.343353
     84 C28         5.5930    4.5200   -1.2060 c3        1 MOL     -0.307547
     85 O15         4.9200    2.6750   -2.5150 oh        1 MOL     -0.668178
     86 H35         3.0980    5.1220   -0.0600 hn        1 MOL      0.292355
     87 H36         3.1800    4.5640   -2.7980 h1        1 MOL      0.046988
     88 H37         4.2150    2.9050   -0.5940 h1        1 MOL     -0.052713
     89 H38         5.6840    2.2240   -2.1350 ho        1 MOL      0.387408
     90 H39         6.5620    4.1630   -0.8800 hc        1 MOL      0.084697
     91 H40         5.7060    5.1930   -2.0590 hc        1 MOL      0.084697
     92 H41         5.2310    5.2040   -0.4360 hc        1 MOL      0.084697
     93 N9          2.1390    2.2620   -3.2180 n         1 MOL     -0.598850
     94 C29         1.3680    1.0970   -3.5680 c3        1 MOL      0.119488
     95 C30         1.7770   -0.2370   -2.7790 c         1 MOL      0.234403
     96 O16         1.6920   -0.3300   -1.5500 o         1 MOL     -0.391647
     97 C31        -0.0940    1.3460   -3.5330 c3        1 MOL     -0.046741
     98 C32        -0.5560    2.7080   -4.2670 c3        1 MOL      0.182707
     99 C33        -0.9750    0.1900   -3.9320 c3        1 MOL     -0.396088
    100 C34        -1.7730    3.3620   -3.6530 c3        1 MOL     -0.113685
    101 H42         2.7800    2.5800   -3.9290 hn        1 MOL      0.308416
    102 H43         1.4960    0.9540   -4.6450 h1        1 MOL      0.034585
    103 H44        -0.4240    1.5110   -2.5150 hc        1 MOL      0.120830
    104 H45        -0.7240    2.6230   -5.3390 hc        1 MOL     -0.041015
    105 H46         0.1990    3.4870   -4.1680 hc        1 MOL     -0.041015
    106 H47        -2.0250    0.4600   -4.0330 hc        1 MOL      0.094730
    107 H48        -0.6170   -0.3310   -4.8270 hc        1 MOL      0.094730
    108 H49        -0.8990   -0.5610   -3.1480 hc        1 MOL      0.094730
    109 H50        -1.6950    3.2860   -2.5730 hc        1 MOL      0.018836
    110 H51        -1.9330    4.4300   -3.8130 hc        1 MOL      0.018836
    111 H52        -2.6460    2.7900   -3.9540 hc        1 MOL      0.018836
    112 N10         2.0620   -1.3320   -3.5270 n         1 MOL     -0.182113
    113 C35         2.4130   -2.6720   -2.9290 c3        1 MOL     -0.077195
    114 C36         3.7990   -2.7450   -2.3730 c         1 MOL      0.527346
    115 O17         4.0870   -3.7790   -1.6900 o         1 MOL     -0.565538
    116 C37         2.1670   -3.8170   -3.9360 c3        1 MOL      0.436914
    117 C38         3.2850   -3.9460   -5.0020 c3        1 MOL     -0.230921
    118 O18         0.9750   -3.5560   -4.6730 oh        1 MOL     -0.629059
    119 H53         2.1640   -1.2940   -4.5300 hn        1 MOL      0.227623
    120 H54         1.7450   -2.8680   -2.0870 h1        1 MOL      0.088542
    121 H55         2.1240   -4.7670   -3.4070 h1        1 MOL     -0.008438
    122 H56         0.2650   -3.6080   -4.0280 ho        1 MOL      0.386985
    123 H57         3.9760   -4.6000   -4.4740 hc        1 MOL      0.057778
    124 H58         3.0150   -4.4230   -5.9320 hc        1 MOL      0.057778
    125 H59         3.6930   -2.9350   -5.1080 hc        1 MOL      0.057778
    126 N11         4.7090   -1.8540   -2.7160 n         1 MOL     -0.137593
    127 C39         6.0720   -1.9990   -2.2650 c3        1 MOL     -0.392546
    128 C40         6.1720   -1.6380   -0.8040 c         1 MOL      0.553541
    129 O19         5.4060   -0.8160   -0.2730 o         1 MOL     -0.504987
    130 C41         7.1110   -1.3520   -3.1960 c3        1 MOL      0.453292
    131 C42         7.1730   -1.9280   -4.5660 c3        1 MOL     -0.389977
    132 O20         6.8560    0.0710   -3.4080 oh        1 MOL     -0.627639
    133 H60         4.5080   -1.1390   -3.4020 hn        1 MOL      0.171954
    134 H61         6.3460   -3.0520   -2.2010 h1        1 MOL      0.125069
    135 H62         8.1180   -1.4160   -2.8000 h1        1 MOL      0.069493
    136 H63         6.0460    0.1670   -3.9170 ho        1 MOL      0.409005
    137 H64         6.3300   -1.6840   -5.2080 hc        1 MOL      0.093657
    138 H65         8.1880   -1.7630   -4.9320 hc        1 MOL      0.093657
    139 H66         7.0510   -3.0130   -4.5060 hc        1 MOL      0.093657
    140 N12         7.0560   -2.2980   -0.0920 n         1 MOL     -0.353910
    141 C43         7.3760   -2.0300    1.3570 c3        1 MOL     -0.085572
    142 C44         6.2440   -1.5750    2.2740 c         1 MOL      0.580417
    143 O21         6.2050   -0.4100    2.6760 o         1 MOL     -0.532381
    144 C45         8.6150   -1.0630    1.4820 c3        1 MOL     -0.068749
    145 C46         9.8800   -1.4420    0.6330 c3        1 MOL     -0.157356
    146 C47        11.1900   -0.8540    1.1540 c3        1 MOL      0.113892
    147 C48        11.1320    0.6490    1.3580 c3        1 MOL     -0.019603
    148 N13        11.8590    1.0770    2.5900 n4        1 MOL     -0.269281
    149 H67         7.6750   -2.9110   -0.6030 hn        1 MOL      0.260914
    150 H68         7.6510   -3.0270    1.7250 h1        1 MOL      0.105591
    151 H69         8.8960   -1.0740    2.5290 hc        1 MOL      0.064196
    152 H70         8.3720   -0.0010    1.4840 hc        1 MOL      0.064196
    153 H71         9.6760   -1.2460   -0.4180 hc        1 MOL      0.052805
    154 H72         9.9850   -2.5230    0.7750 hc        1 MOL      0.052805
    155 H73        11.9900   -1.1050    0.4550 hc        1 MOL      0.012657
    156 H74        11.4710   -1.3510    2.0820 hc        1 MOL      0.012657
    157 H75        10.1340    0.9880    1.6170 hx        1 MOL      0.086053
    158 H76        11.5140    1.1400    0.4590 hx        1 MOL      0.086053
    159 H77        11.6320    2.0560    2.7230 hn        1 MOL      0.234426
    160 H78        11.4530    0.5150    3.3190 hn        1 MOL      0.234426
    161 H79        12.8650    1.0210    2.5820 hn        1 MOL      0.234426
    162 N14         5.1990   -2.4080    2.4070 n         1 MOL     -0.805713
    163 C49         3.8630   -2.1010    2.7270 c3        1 MOL      1.091347
    164 C50         2.8860   -2.4810    1.6360 c         1 MOL      0.367582
    165 O22         2.1840   -1.5820    1.0870 o         1 MOL     -0.686462
    166 C51         3.4490   -2.6670    4.1370 c3        1 MOL     -0.267542
    167 C52         3.8080   -1.6010    5.2350 c3        1 MOL     -0.100774
    168 C53         3.6050   -1.9880    6.7060 c         1 MOL      0.649551
    169 O23         2.4280   -2.0710    7.1720 o         1 MOL     -0.611321
    170 O24         4.5730   -2.3580    7.4140 o         1 MOL     -0.611321
    171 H80         5.3920   -3.3600    2.1290 hn        1 MOL      0.292188
    172 H81         3.8090   -1.0090    2.8210 h1        1 MOL     -0.125321
    173 H82         4.1510   -3.4880    4.3200 hc        1 MOL      0.062007
    174 H83         2.3870   -2.9190    4.1720 hc        1 MOL      0.062007
    175 H84         3.1060   -0.7970    5.0010 hc        1 MOL     -0.012744
    176 H85         4.8490   -1.2950    5.1410 hc        1 MOL     -0.012744
    177 N15         2.6430   -3.7800    1.2600 n         1 MOL     -0.427264
    178 C54         2.9430   -5.0930    1.9270 c3        1 MOL     -0.016682
    179 H86         3.5970   -5.6850    1.2860 h1        1 MOL      0.047486
    180 H87         3.4390   -4.9120    2.8820 h1        1 MOL      0.047486
    181 H88         2.0140   -5.6370    2.0970 h1        1 MOL      0.047486
    182 H89         2.1560   -3.7890    0.3790 hn        1 MOL      0.350058
    183 Ca1         0.5120    0.5500    0.8160 Ca        1 MOL      1.814579
    184 O25         1.2000   -0.0920    3.3250 oh        1 MOL     -0.872175
    185 H90         1.4270    0.7270    3.7650 ho        1 MOL      0.426288
    186 H91         0.9320   -0.6720    4.0390 ho        1 MOL      0.426288
    187 O26         3.5910    0.8660    1.0440 oh        1 MOL     -0.872175
    188 H92         4.1030    0.2960    0.4840 ho        1 MOL      0.426288
    189 H93         4.2430    1.4320    1.4700 ho        1 MOL      0.426288
    190 O27        -1.7670    0.0260    2.4770 oh        1 MOL     -0.872175
    191 H94        -2.6810    0.0880    2.1840 ho        1 MOL      0.426288
    192 H95        -1.6650    0.7550    3.0930 ho        1 MOL      0.426288
@<TRIPOS>BOND
     1    1    2 1   
     2    1    4 1   
     3    1    5 1   
     4    1    6 1   
     5    2    3 2   
     6    2    7 1   
     7    7    8 1   
     8    7   15 1   
     9    8    9 1   
    10    8   11 1   
    11    8   16 1   
    12    9   10 2   
    13    9   19 1   
    14   11   12 1   
    15   11   17 1   
    16   11   18 1   
    17   12   13 1   
    18   12   14 1   
    19   19   20 1   
    20   19   28 1   
    21   20   21 1   
    22   20   23 1   
    23   20   29 1   
    24   21   22 2   
    25   21   41 1   
    26   23   24 1   
    27   23   30 1   
    28   23   31 1   
    29   24   25 1   
    30   24   32 1   
    31   24   33 1   
    32   25   26 1   
    33   25   34 1   
    34   25   35 1   
    35   26   27 1   
    36   26   36 1   
    37   26   37 1   
    38   27   38 1   
    39   27   39 1   
    40   27   40 1   
    41   41   42 1   
    42   41   49 1   
    43   42   43 1   
    44   42   45 1   
    45   42   50 1   
    46   43   44 2   
    47   43   53 1   
    48   45   46 1   
    49   45   51 1   
    50   45   52 1   
    51   46   47 1   
    52   46   48 1   
    53   53   54 1   
    54   53   57 1   
    55   54   55 1   
    56   54   58 1   
    57   54   59 1   
    58   55   56 2   
    59   55   60 1   
    60   60   61 1   
    61   60   68 1   
    62   61   62 1   
    63   61   64 1   
    64   61   69 1   
    65   62   63 2   
    66   62   72 1   
    67   64   65 1   
    68   64   70 1   
    69   64   71 1   
    70   65   66 1   
    71   65   67 1   
    72   72   73 1   
    73   72   76 1   
    74   73   74 1   
    75   73   77 1   
    76   73   78 1   
    77   74   75 2   
    78   74   79 1   
    79   79   80 1   
    80   79   86 1   
    81   80   81 1   
    82   80   83 1   
    83   80   87 1   
    84   81   82 2   
    85   81   93 1   
    86   83   84 1   
    87   83   85 1   
    88   83   88 1   
    89   84   90 1   
    90   84   91 1   
    91   84   92 1   
    92   85   89 1   
    93   93   94 1   
    94   93  101 1   
    95   94   95 1   
    96   94   97 1   
    97   94  102 1   
    98   95   96 2   
    99   95  112 1   
   100   97   98 1   
   101   97   99 1   
   102   97  103 1   
   103   98  100 1   
   104   98  104 1   
   105   98  105 1   
   106   99  106 1   
   107   99  107 1   
   108   99  108 1   
   109  100  109 1   
   110  100  110 1   
   111  100  111 1   
   112  112  113 1   
   113  112  119 1   
   114  113  114 1   
   115  113  116 1   
   116  113  120 1   
   117  114  115 2   
   118  114  126 1   
   119  116  117 1   
   120  116  118 1   
   121  116  121 1   
   122  117  123 1   
   123  117  124 1   
   124  117  125 1   
   125  118  122 1   
   126  126  127 1   
   127  126  133 1   
   128  127  128 1   
   129  127  130 1   
   130  127  134 1   
   131  128  129 2   
   132  128  140 1   
   133  130  131 1   
   134  130  132 1   
   135  130  135 1   
   136  131  137 1   
   137  131  138 1   
   138  131  139 1   
   139  132  136 1   
   140  140  141 1   
   141  140  149 1   
   142  141  142 1   
   143  141  144 1   
   144  141  150 1   
   145  142  143 2   
   146  142  162 1   
   147  144  145 1   
   148  144  151 1   
   149  144  152 1   
   150  145  146 1   
   151  145  153 1   
   152  145  154 1   
   153  146  147 1   
   154  146  155 1   
   155  146  156 1   
   156  147  148 1   
   157  147  157 1   
   158  147  158 1   
   159  148  159 1   
   160  148  160 1   
   161  148  161 1   
   162  162  163 1   
   163  162  171 1   
   164  163  164 1   
   165  163  166 1   
   166  163  172 1   
   167  164  165 2   
   168  164  177 1   
   169  166  167 1   
   170  166  173 1   
   171  166  174 1   
   172  167  168 1   
   173  167  175 1   
   174  167  176 1   
   175  168  169 1   
   176  168  170 1   
   177  177  178 1   
   178  177  182 1   
   179  178  179 1   
   180  178  180 1   
   181  178  181 1   
   182  184  185 1   
   183  184  186 1   
   184  187  188 1   
   185  187  189 1   
   186  190  191 1   
   187  190  192 1   
@<TRIPOS>SUBSTRUCTURE
     1 MOL         1 TEMP              0 ****  ****    0 ROOT
