@<TRIPOS>MOLECULE
MOL
  195   189     1     0     0
SMALL
resp


@<TRIPOS>ATOM
      1 C1         14.3550    3.6690   -2.1830 c3        1 MOL     -0.402424
      2 C2         13.5360    2.5280   -1.6640 c         1 MOL      0.732099
      3 O1         13.8670    1.3890   -1.9870 o         1 MOL     -0.605476
      4 H1         15.2050    3.2800   -2.7450 hc        1 MOL      0.109249
      5 H2         13.7410    4.2890   -2.8360 hc        1 MOL      0.109249
      6 H3         14.7160    4.2680   -1.3470 hc        1 MOL      0.109249
      7 N1         12.5760    2.7790   -0.7360 n         1 MOL     -0.493015
      8 C3         12.0320    1.8960    0.2580 c3        1 MOL     -0.034372
      9 C4         10.6520    1.3800   -0.1860 c         1 MOL      0.594170
     10 O2          9.6860    2.1160   -0.2530 o         1 MOL     -0.613895
     11 C5         11.9620    2.6390    1.6120 c3        1 MOL     -0.037997
     12 C6         11.2440    4.0570    1.5420 c         1 MOL      0.587855
     13 O3         11.8600    5.0010    1.0210 o         1 MOL     -0.639447
     14 O4         10.0950    4.0410    2.0480 o         1 MOL     -0.639447
     15 H4         12.3790    3.7450   -0.5160 hn        1 MOL      0.214722
     16 H5         12.7060    1.0560    0.3590 h1        1 MOL      0.084362
     17 H6         12.9750    2.8160    1.9800 hc        1 MOL      0.041463
     18 H7         11.4770    1.9650    2.3150 hc        1 MOL      0.041463
     19 N2         10.4510    0.0690   -0.2510 n         1 MOL     -0.500844
     20 C7          9.1850   -0.5630   -0.7280 c3        1 MOL      0.037051
     21 C8          8.1720   -0.8680    0.3940 c         1 MOL      0.904085
     22 O5          8.5440   -1.4860    1.3180 o         1 MOL     -0.591823
     23 C9          9.4610   -1.8280   -1.6720 c3        1 MOL     -0.194939
     24 C10         8.2720   -2.5530   -2.2800 c3        1 MOL      0.061037
     25 C11         8.6600   -3.9140   -2.8880 c3        1 MOL     -0.129015
     26 C12         9.6260   -3.7190   -4.1420 c3        1 MOL      0.067564
     27 N3          9.7220   -4.9800   -4.8490 n4        1 MOL     -0.166140
     28 H8         11.1560   -0.5880    0.0520 hn        1 MOL      0.292142
     29 H9          8.6460    0.1090   -1.4000 h1        1 MOL      0.108798
     30 H10        10.0460   -2.5270   -1.0790 hc        1 MOL      0.069210
     31 H11        10.0440   -1.4270   -2.4970 hc        1 MOL      0.069210
     32 H12         7.8980   -1.9110   -3.0760 hc        1 MOL      0.011033
     33 H13         7.5130   -2.5760   -1.4970 hc        1 MOL      0.011033
     34 H14         7.7550   -4.4820   -3.1220 hc        1 MOL      0.068773
     35 H15         9.2500   -4.3550   -2.0810 hc        1 MOL      0.068773
     36 H16        10.5880   -3.3530   -3.7770 hx        1 MOL      0.057977
     37 H17         9.1670   -2.9790   -4.7870 hx        1 MOL      0.057977
     38 H18         8.9200   -5.0600   -5.4720 hn        1 MOL      0.214564
     39 H19        10.5630   -5.0320   -5.4050 hn        1 MOL      0.214564
     40 H20         9.7010   -5.7820   -4.2450 hn        1 MOL      0.214564
     41 N4          6.8560   -0.4880    0.1790 n         1 MOL     -0.773658
     42 C13         5.7230   -0.5620    1.1160 c3        1 MOL      0.229648
     43 C14         4.4380   -0.8620    0.2330 c         1 MOL      0.505717
     44 O6          4.3320   -0.5400   -0.9530 o         1 MOL     -0.524407
     45 C15         5.5840    0.7180    1.9310 c3        1 MOL     -0.094685
     46 C16         6.2490    1.9510    1.4360 c         1 MOL      0.846134
     47 O7          5.7980    2.5100    0.4080 o         1 MOL     -0.809504
     48 O8          7.3230    2.4070    1.9090 o         1 MOL     -0.809504
     49 H21         6.7060   -0.0440   -0.7170 hn        1 MOL      0.222675
     50 H22         5.8760   -1.4210    1.7680 h1        1 MOL      0.060348
     51 H23         5.9890    0.6000    2.9350 hc        1 MOL      0.025366
     52 H24         4.5120    0.8720    2.0400 hc        1 MOL      0.025366
     53 N5          3.2850   -1.2300    0.8960 n         1 MOL     -0.335596
     54 C17         3.0530   -1.4220    2.3820 c3        1 MOL     -0.316737
     55 C18         2.3360   -2.7160    2.7140 c         1 MOL      0.701254
     56 O9          2.5210   -3.7580    2.0300 o         1 MOL     -0.593190
     57 H25         2.4330   -1.2190    0.3450 hn        1 MOL      0.307557
     58 H26         2.4550   -0.5720    2.7150 h1        1 MOL      0.128464
     59 H27         3.9670   -1.3390    2.9540 h1        1 MOL      0.128464
     60 N6          1.4560   -2.6190    3.6810 n         1 MOL     -0.501615
     61 C19         0.8130   -3.7950    4.2580 c3        1 MOL      0.131360
     62 C20        -0.3270   -4.2080    3.3280 c         1 MOL      0.596400
     63 O10        -1.2320   -3.4140    3.0920 o         1 MOL     -0.550467
     64 C21         0.1920   -3.5030    5.6220 c3        1 MOL     -0.337933
     65 C22        -0.6140   -4.7400    6.1560 c         1 MOL      0.739954
     66 O11        -1.3810   -4.6590    7.1100 o         1 MOL     -0.643895
     67 O12        -0.4120   -5.8670    5.6110 o         1 MOL     -0.643895
     68 H28         1.4730   -1.8080    4.2870 hn        1 MOL      0.303509
     69 H29         1.4440   -4.6760    4.3740 h1        1 MOL      0.015737
     70 H30        -0.4550   -2.6360    5.5040 hc        1 MOL      0.089784
     71 H31         1.0070   -3.1800    6.2660 hc        1 MOL      0.089784
     72 N7         -0.3130   -5.4070    2.6880 n         1 MOL     -0.403025
     73 C23        -1.2120   -5.7910    1.6070 c3        1 MOL     -0.095435
     74 C24        -0.8920   -5.1060    0.3020 c         1 MOL      0.456198
     75 O13        -1.7440   -5.2700   -0.6120 o         1 MOL     -0.580488
     76 H32         0.6180   -5.7840    2.7970 hn        1 MOL      0.248050
     77 H33        -2.1560   -5.3690    1.9460 h1        1 MOL      0.117916
     78 H34        -1.2590   -6.8710    1.4980 h1        1 MOL      0.117916
     79 N8          0.2050   -4.3810    0.1940 n         1 MOL     -0.240645
     80 C25         0.4740   -3.5250   -0.9830 c3        1 MOL     -0.048818
     81 C26         0.0100   -2.1230   -0.6400 c         1 MOL      0.403910
     82 O14         0.4330   -1.4270    0.2780 o         1 MOL     -0.508027
     83 C27         1.9360   -3.5650   -1.3950 c3        1 MOL      0.424088
     84 C28         2.4250   -4.9110   -1.9070 c3        1 MOL     -0.229622
     85 O15         1.9930   -2.7500   -2.5210 oh        1 MOL     -0.654887
     86 H35         0.7150   -4.2340    1.0490 hn        1 MOL      0.202168
     87 H36        -0.0480   -3.8330   -1.8900 h1        1 MOL      0.116690
     88 H37         2.6470   -3.0700   -0.7310 h1        1 MOL     -0.069647
     89 H38         2.9290   -2.5960   -2.6750 ho        1 MOL      0.389806
     90 H39         3.4160   -5.0020   -2.3540 hc        1 MOL      0.047596
     91 H40         2.4670   -5.5600   -1.0330 hc        1 MOL      0.047596
     92 H41         1.6950   -5.3560   -2.5800 hc        1 MOL      0.047596
     93 N9         -0.9680   -1.6730   -1.4270 n         1 MOL     -0.146329
     94 C29        -1.6960   -0.3700   -1.3510 c3        1 MOL     -0.143922
     95 C30        -3.0770   -0.4940   -0.6900 c         1 MOL      0.612952
     96 O16        -3.5560    0.3630   -0.0040 o         1 MOL     -0.546061
     97 C31        -1.5950    0.3550   -2.7170 c3        1 MOL      0.235307
     98 C32        -0.2160    0.2750   -3.3770 c3        1 MOL      0.016062
     99 C33        -2.0580    1.7470   -2.6410 c3        1 MOL     -0.277705
    100 C34         1.0600    0.8360   -2.6630 c3        1 MOL     -0.204566
    101 H42        -1.1860   -2.2580   -2.2140 hn        1 MOL      0.195484
    102 H43        -1.1590    0.1500   -0.5590 h1        1 MOL      0.104447
    103 H44        -2.2430   -0.1100   -3.4610 hc        1 MOL     -0.014545
    104 H45        -0.3680    0.7050   -4.3590 hc        1 MOL     -0.014730
    105 H46        -0.0460   -0.7740   -3.6030 hc        1 MOL     -0.014730
    106 H47        -2.2290    2.1910   -3.6200 hc        1 MOL      0.068566
    107 H48        -3.0700    1.7560   -2.2470 hc        1 MOL      0.068566
    108 H49        -1.4280    2.3900   -2.0250 hc        1 MOL      0.068566
    109 H50         1.8680    0.5840   -3.3510 hc        1 MOL      0.052214
    110 H51         1.0970    1.9080   -2.4650 hc        1 MOL      0.052214
    111 H52         1.2840    0.3380   -1.7210 hc        1 MOL      0.052214
    112 N10        -3.6370   -1.6570   -1.0530 n         1 MOL     -0.562082
    113 C35        -4.9170   -2.0210   -0.5580 c3        1 MOL      0.092131
    114 C36        -5.8750   -2.1430   -1.8090 c         1 MOL      0.570924
    115 O17        -5.4950   -2.6580   -2.8720 o         1 MOL     -0.540300
    116 C37        -4.7610   -3.2940    0.3030 c3        1 MOL      0.285086
    117 C38        -4.0930   -2.9410    1.6570 c3        1 MOL     -0.489826
    118 O18        -6.0790   -3.7130    0.5830 oh        1 MOL     -0.596994
    119 H53        -3.0050   -2.2220   -1.5960 hn        1 MOL      0.265136
    120 H54        -5.3180   -1.2440    0.0840 h1        1 MOL      0.101559
    121 H55        -4.1680   -4.0030   -0.2760 h1        1 MOL      0.018768
    122 H56        -5.8740   -4.6310    0.8080 ho        1 MOL      0.372073
    123 H57        -3.8830   -3.8790    2.1810 hc        1 MOL      0.158979
    124 H58        -3.1380   -2.4540    1.4540 hc        1 MOL      0.158979
    125 H59        -4.6900   -2.1990    2.1800 hc        1 MOL      0.158979
    126 N11        -7.0900   -1.6870   -1.5860 n         1 MOL     -0.568426
    127 C39        -8.2300   -1.9080   -2.5090 c3        1 MOL      0.020307
    128 C40        -9.3200   -0.7890   -2.4780 c         1 MOL      0.664356
    129 O19        -9.7480   -0.3430   -3.5520 o         1 MOL     -0.567798
    130 C41        -8.7970   -3.3180   -2.2810 c3        1 MOL      0.316899
    131 C42        -9.7200   -3.7900   -3.4000 c3        1 MOL     -0.481550
    132 O20        -9.4430   -3.3450   -1.0200 oh        1 MOL     -0.617668
    133 H60        -7.2530   -1.3380   -0.6550 hn        1 MOL      0.307189
    134 H61        -7.8640   -1.8740   -3.5350 h1        1 MOL      0.095456
    135 H62        -8.0000   -4.0490   -2.1690 h1        1 MOL      0.038944
    136 H63        -9.4160   -4.2970   -0.8670 ho        1 MOL      0.391968
    137 H64        -9.0840   -3.9670   -4.2670 hc        1 MOL      0.123466
    138 H65       -10.1330   -4.7830   -3.2180 hc        1 MOL      0.123466
    139 H66       -10.5950   -3.1500   -3.4410 hc        1 MOL      0.123466
    140 N12        -9.6360   -0.2840   -1.2660 n         1 MOL     -0.485619
    141 C43       -10.4800    0.9470   -1.0590 c3        1 MOL     -0.020623
    142 C44       -10.0990    1.7620    0.1860 c         1 MOL      0.395925
    143 O21        -9.8770    1.2000    1.2770 o         1 MOL     -0.457680
    144 C45       -11.9520    0.5450   -1.0280 c3        1 MOL     -0.349869
    145 C46       -12.9250    1.7130   -0.9350 c3        1 MOL      0.351321
    146 C47       -14.3490    1.1870   -0.9310 c3        1 MOL      0.109351
    147 C48       -15.2480    2.4140   -1.0670 c3        1 MOL      0.168601
    148 N13       -16.6700    1.9040   -1.2880 n4        1 MOL     -0.427822
    149 H67        -9.3370   -0.6560   -0.3820 hn        1 MOL      0.334971
    150 H68       -10.4390    1.5670   -1.9510 h1        1 MOL      0.085376
    151 H69       -12.1380   -0.0190   -0.1120 hc        1 MOL      0.131352
    152 H70       -12.1660   -0.0370   -1.9250 hc        1 MOL      0.131352
    153 H71       -12.8290    2.3810   -1.7990 hc        1 MOL     -0.109520
    154 H72       -12.7490    2.3290   -0.0480 hc        1 MOL     -0.109520
    155 H73       -14.5290    0.5210   -0.0910 hc        1 MOL     -0.041598
    156 H74       -14.3320    0.5960   -1.8470 hc        1 MOL     -0.041598
    157 H75       -14.9990    3.0700   -1.9000 hx        1 MOL      0.042895
    158 H76       -15.1630    3.0080   -0.1650 hx        1 MOL      0.042895
    159 H77       -17.2040    1.7400   -0.4510 hn        1 MOL      0.321643
    160 H78       -17.1770    2.5670   -1.8580 hn        1 MOL      0.321643
    161 H79       -16.5750    1.0630   -1.8390 hn        1 MOL      0.321643
    162 N14       -10.0830    3.1000    0.1270 n         1 MOL     -0.266186
    163 C49        -9.8690    3.9240    1.3320 c3        1 MOL      0.279382
    164 C50        -8.3500    3.8070    1.6500 c         1 MOL      0.306488
    165 O22        -8.0180    3.3260    2.7710 o         1 MOL     -0.522075
    166 C51       -10.3830    5.3740    1.2040 c3        1 MOL      0.007274
    167 C52       -11.9120    5.3280    1.2780 c3        1 MOL     -0.085392
    168 C53       -12.6100    6.6860    1.1990 c         1 MOL      0.634892
    169 O23       -13.8360    6.7260    1.4660 o         1 MOL     -0.676567
    170 O24       -11.9130    7.7700    1.0400 o         1 MOL     -0.676567
    171 H80       -10.1900    3.6180   -0.7330 hn        1 MOL      0.238026
    172 H81       -10.3670    3.4280    2.1700 h1        1 MOL      0.013037
    173 H82       -10.1130    5.8620    0.2650 hc        1 MOL      0.014312
    174 H83       -10.0340    5.9300    2.0690 hc        1 MOL      0.014312
    175 H84       -12.3160    4.8270    2.1670 hc        1 MOL     -0.003617
    176 H85       -12.2600    4.7410    0.4330 hc        1 MOL     -0.003617
    177 N15        -7.3620    4.0160    0.7930 n         1 MOL     -0.329587
    178 C54        -7.3720    4.6510   -0.5260 c3        1 MOL     -0.021610
    179 H86        -6.3780    4.5840   -0.9680 h1        1 MOL      0.035350
    180 H87        -8.0900    4.1430   -1.1690 h1        1 MOL      0.035350
    181 H88        -7.6530    5.6990   -0.4230 h1        1 MOL      0.035350
    182 H89        -6.4700    3.6420    1.0900 hn        1 MOL      0.300767
    183 Ca1         8.2980    4.2040    0.2940 Ca        1 MOL      1.772650
    184 O25         9.5640    5.3170   -1.6760 oh        1 MOL     -0.850292
    185 H90        10.0180    6.1420   -1.4990 ho        1 MOL      0.418977
    186 H91         9.8650    5.0620   -2.5490 ho        1 MOL      0.418977
    187 O26         6.6040    5.1580    2.1530 oh        1 MOL     -0.850292
    188 H92         6.1290    4.8200    2.9120 ho        1 MOL      0.418977
    189 H93         5.9370    5.6030    1.6290 ho        1 MOL      0.418977
    190 O27         9.0110    6.7850    0.9510 oh        1 MOL     -0.850292
    191 H94         8.7840    7.7170    0.9790 ho        1 MOL      0.418977
    192 H95         9.8700    6.7380    1.3700 ho        1 MOL      0.418977
    193 O28         7.3060    2.9410   -1.9200 oh        1 MOL     -0.850292
    194 H96         7.2950    2.2660   -2.5910 ho        1 MOL      0.418977
    195 H97         6.5210    2.7700   -1.3990 ho        1 MOL      0.418977
@<TRIPOS>BOND
     1    1    2 1   
     2    1    4 1   
     3    1    5 1   
     4    1    6 1   
     5    2    3 2   
     6    2    7 1   
     7    7    8 1   
     8    7   15 1   
     9    8    9 1   
    10    8   11 1   
    11    8   16 1   
    12    9   10 2   
    13    9   19 1   
    14   11   12 1   
    15   11   17 1   
    16   11   18 1   
    17   12   13 1   
    18   12   14 1   
    19   19   20 1   
    20   19   28 1   
    21   20   21 1   
    22   20   23 1   
    23   20   29 1   
    24   21   22 2   
    25   21   41 1   
    26   23   24 1   
    27   23   30 1   
    28   23   31 1   
    29   24   25 1   
    30   24   32 1   
    31   24   33 1   
    32   25   26 1   
    33   25   34 1   
    34   25   35 1   
    35   26   27 1   
    36   26   36 1   
    37   26   37 1   
    38   27   38 1   
    39   27   39 1   
    40   27   40 1   
    41   41   42 1   
    42   41   49 1   
    43   42   43 1   
    44   42   45 1   
    45   42   50 1   
    46   43   44 2   
    47   43   53 1   
    48   45   46 1   
    49   45   51 1   
    50   45   52 1   
    51   46   47 1   
    52   46   48 1   
    53   53   54 1   
    54   53   57 1   
    55   54   55 1   
    56   54   58 1   
    57   54   59 1   
    58   55   56 2   
    59   55   60 1   
    60   60   61 1   
    61   60   68 1   
    62   61   62 1   
    63   61   64 1   
    64   61   69 1   
    65   62   63 2   
    66   62   72 1   
    67   64   65 1   
    68   64   70 1   
    69   64   71 1   
    70   65   66 1   
    71   65   67 1   
    72   72   73 1   
    73   72   76 1   
    74   73   74 1   
    75   73   77 1   
    76   73   78 1   
    77   74   75 2   
    78   74   79 1   
    79   79   80 1   
    80   79   86 1   
    81   80   81 1   
    82   80   83 1   
    83   80   87 1   
    84   81   82 2   
    85   81   93 1   
    86   83   84 1   
    87   83   85 1   
    88   83   88 1   
    89   84   90 1   
    90   84   91 1   
    91   84   92 1   
    92   85   89 1   
    93   93   94 1   
    94   93  101 1   
    95   94   95 1   
    96   94   97 1   
    97   94  102 1   
    98   95   96 2   
    99   95  112 1   
   100   97   98 1   
   101   97   99 1   
   102   97  103 1   
   103   98  100 1   
   104   98  104 1   
   105   98  105 1   
   106   99  106 1   
   107   99  107 1   
   108   99  108 1   
   109  100  109 1   
   110  100  110 1   
   111  100  111 1   
   112  112  113 1   
   113  112  119 1   
   114  113  114 1   
   115  113  116 1   
   116  113  120 1   
   117  114  115 2   
   118  114  126 1   
   119  116  117 1   
   120  116  118 1   
   121  116  121 1   
   122  117  123 1   
   123  117  124 1   
   124  117  125 1   
   125  118  122 1   
   126  126  127 1   
   127  126  133 1   
   128  127  128 1   
   129  127  130 1   
   130  127  134 1   
   131  128  129 2   
   132  128  140 1   
   133  130  131 1   
   134  130  132 1   
   135  130  135 1   
   136  131  137 1   
   137  131  138 1   
   138  131  139 1   
   139  132  136 1   
   140  140  141 1   
   141  140  149 1   
   142  141  142 1   
   143  141  144 1   
   144  141  150 1   
   145  142  143 2   
   146  142  162 1   
   147  144  145 1   
   148  144  151 1   
   149  144  152 1   
   150  145  146 1   
   151  145  153 1   
   152  145  154 1   
   153  146  147 1   
   154  146  155 1   
   155  146  156 1   
   156  147  148 1   
   157  147  157 1   
   158  147  158 1   
   159  148  159 1   
   160  148  160 1   
   161  148  161 1   
   162  162  163 1   
   163  162  171 1   
   164  163  164 1   
   165  163  166 1   
   166  163  172 1   
   167  164  165 2   
   168  164  177 1   
   169  166  167 1   
   170  166  173 1   
   171  166  174 1   
   172  167  168 1   
   173  167  175 1   
   174  167  176 1   
   175  168  169 1   
   176  168  170 1   
   177  177  178 1   
   178  177  182 1   
   179  178  179 1   
   180  178  180 1   
   181  178  181 1   
   182  184  185 1   
   183  184  186 1   
   184  187  188 1   
   185  187  189 1   
   186  190  191 1   
   187  190  192 1   
   188  193  194 1   
   189  193  195 1   
@<TRIPOS>SUBSTRUCTURE
     1 MOL         1 TEMP              0 ****  ****    0 ROOT
