@<TRIPOS>MOLECULE
MOL
  192   187     1     0     0
SMALL
resp


@<TRIPOS>ATOM
      1 C1          2.6160    3.1260    3.1760 c3        1 MOL     -0.118909
      2 C2          1.8000    3.4610    1.9440 c         1 MOL      0.594093
      3 O1          1.0040    2.6810    1.4310 o         1 MOL     -0.489621
      4 H1          3.5530    3.6830    3.1530 hc        1 MOL      0.011790
      5 H2          2.0530    3.3980    4.0690 hc        1 MOL      0.011790
      6 H3          2.8300    2.0570    3.1910 hc        1 MOL      0.011790
      7 N1          1.9320    4.6980    1.5290 n         1 MOL     -0.596973
      8 C3          1.4290    5.1250    0.2120 c3        1 MOL      0.217276
      9 C4         -0.1200    5.1740    0.0360 c         1 MOL      0.715377
     10 O2         -0.6650    4.9570   -1.0190 o         1 MOL     -0.528037
     11 C5          2.1490    4.5780   -1.0180 c3        1 MOL     -0.632962
     12 C6          3.6770    4.4300   -0.8350 c         1 MOL      0.879061
     13 O3          4.2960    3.3150   -1.0650 o         1 MOL     -0.805663
     14 O4          4.3680    5.3610   -0.3450 o         1 MOL     -0.805663
     15 H4          2.5980    5.2960    2.0010 hn        1 MOL      0.306945
     16 H5          1.6740    6.1810    0.1240 h1        1 MOL      0.065699
     17 H6          1.9780    5.3000   -1.8190 hc        1 MOL      0.204366
     18 H7          1.7550    3.5680   -1.1590 hc        1 MOL      0.204366
     19 N2         -0.7870    5.5010    1.1420 n         1 MOL     -0.850797
     20 C7         -2.2060    5.6940    1.2430 c3        1 MOL      0.408051
     21 C8         -2.7880    6.8420    0.4760 c         1 MOL      0.173262
     22 O5         -2.0480    7.7620    0.0240 o         1 MOL     -0.537169
     23 C9         -2.5960    5.7380    2.7120 c3        1 MOL     -0.033459
     24 C10        -1.8480    6.8500    3.4560 c3        1 MOL      0.217475
     25 C11        -2.2070    4.3620    3.2880 c3        1 MOL     -0.234131
     26 C12        -2.2350    7.0710    4.9490 c3        1 MOL     -0.189106
     27 H8         -0.2470    5.2730    1.9710 hn        1 MOL      0.362063
     28 H9         -2.7980    4.9030    0.7750 h1        1 MOL      0.071410
     29 H10        -3.6700    5.8390    2.8350 hc        1 MOL      0.081514
     30 H11        -2.0760    7.8190    2.9980 hc        1 MOL     -0.041976
     31 H12        -0.7780    6.6930    3.3490 hc        1 MOL     -0.041976
     32 H13        -2.5050    4.3210    4.3340 hc        1 MOL      0.061195
     33 H14        -2.6410    3.5400    2.7080 hc        1 MOL      0.061195
     34 H15        -1.1270    4.2250    3.3080 hc        1 MOL      0.061195
     35 H16        -1.5420    7.7040    5.5100 hc        1 MOL      0.027990
     36 H17        -3.2350    7.4810    5.1070 hc        1 MOL      0.027990
     37 H18        -2.1650    6.0560    5.3430 hc        1 MOL      0.027990
     38 N3         -4.0240    6.8220    0.0670 n         1 MOL     -0.100644
     39 C13        -5.0810    5.7900    0.2600 c3        1 MOL     -0.275556
     40 C14        -4.8840    4.4310   -0.3950 c         1 MOL      0.629097
     41 O6         -5.0070    3.4190    0.3410 o         1 MOL     -0.565402
     42 C15        -6.4410    6.4450   -0.2180 c3        1 MOL     -0.250875
     43 C16        -7.5920    5.4150   -0.0170 c         1 MOL      0.735975
     44 O7         -7.8660    4.9060    1.1350 o         1 MOL     -0.695734
     45 O8         -8.4010    5.2670   -0.9520 o         1 MOL     -0.695734
     46 H19        -4.2530    7.6010   -0.5390 hn        1 MOL      0.223048
     47 H20        -5.2690    5.7330    1.3350 h1        1 MOL      0.089982
     48 H21        -6.3920    6.6040   -1.2950 hc        1 MOL      0.059116
     49 H22        -6.5410    7.3710    0.3510 hc        1 MOL      0.059116
     50 N4         -4.3640    4.2840   -1.6280 n         1 MOL     -0.381631
     51 C17        -3.8670    3.0170   -2.2690 c3        1 MOL     -0.124835
     52 C18        -4.9380    2.3160   -3.0790 c         1 MOL      0.541363
     53 O9         -5.8660    2.9050   -3.6620 o         1 MOL     -0.566319
     54 H23        -4.2440    5.1890   -2.0800 hn        1 MOL      0.277343
     55 H24        -3.5660    2.3770   -1.4460 h1        1 MOL      0.108954
     56 H25        -2.9430    3.1560   -2.8400 h1        1 MOL      0.108954
     57 N5         -4.8780    1.0270   -3.0300 n         1 MOL     -0.396425
     58 C19        -5.9950    0.0420   -3.3950 c3        1 MOL      0.065508
     59 C20        -6.9680   -0.3380   -2.2080 c         1 MOL      0.411787
     60 O10        -8.0480   -0.8940   -2.4530 o         1 MOL     -0.548139
     61 C21        -5.2890   -1.1870   -4.0310 c3        1 MOL     -0.366745
     62 C22        -4.1160   -1.7190   -3.2050 c         1 MOL      0.843422
     63 O11        -2.9280   -1.4670   -3.6170 o         1 MOL     -0.730330
     64 O12        -4.2850   -2.3770   -2.1840 o         1 MOL     -0.730330
     65 H26        -4.0590    0.6610   -2.5890 hn        1 MOL      0.231996
     66 H27        -6.5850    0.4340   -4.2230 h1        1 MOL      0.124572
     67 H28        -4.9440   -0.7800   -4.9840 hc        1 MOL      0.069030
     68 H29        -6.0320   -1.9830   -4.1360 hc        1 MOL      0.069030
     69 N6         -6.5690   -0.0070   -0.9680 n         1 MOL     -0.085581
     70 C23        -7.1690   -0.3320    0.3310 c3        1 MOL     -0.343911
     71 C24        -7.2840   -1.8090    0.6430 c         1 MOL      0.551553
     72 O13        -7.9350   -2.2030    1.6400 o         1 MOL     -0.611775
     73 H30        -5.7500    0.5840   -0.9050 hn        1 MOL      0.209442
     74 H31        -8.1620    0.1140    0.2950 h1        1 MOL      0.164560
     75 H32        -6.6580    0.2330    1.1060 h1        1 MOL      0.164560
     76 N7         -6.6640   -2.6750   -0.1130 n         1 MOL     -0.157309
     77 C25        -6.5040   -4.1780   -0.0480 c3        1 MOL      0.119794
     78 C26        -5.8410   -4.8000    1.2980 c         1 MOL      0.356623
     79 O14        -6.2190   -5.8550    1.7650 o         1 MOL     -0.489910
     80 C27        -7.7660   -4.9050   -0.5630 c3        1 MOL      0.112275
     81 C28        -8.1650   -4.2250   -1.9050 c3        1 MOL     -0.421106
     82 C29        -9.1460   -5.1620   -2.7480 c         1 MOL      0.692487
     83 N8        -10.1570   -4.6410   -3.4210 n         1 MOL     -0.804665
     84 O15        -9.0210   -6.3740   -2.7800 o         1 MOL     -0.572628
     85 H33        -6.2490   -2.3050   -0.9500 hn        1 MOL      0.045948
     86 H34        -5.7770   -4.4380   -0.8100 h1        1 MOL      0.080351
     87 H35        -8.5100   -4.8290    0.2180 hc        1 MOL     -0.000765
     88 H36        -7.4610   -5.9440   -0.5370 hc        1 MOL     -0.000765
     89 H37        -7.2780   -4.0510   -2.5130 hc        1 MOL      0.154826
     90 H38        -8.7190   -3.3230   -1.6900 hc        1 MOL      0.154826
     91 H39       -10.4470   -3.6730   -3.3310 hn        1 MOL      0.348581
     92 H40       -10.6610   -5.1570   -4.1290 hn        1 MOL      0.348581
     93 N9         -4.9870   -4.0580    1.9770 n         1 MOL     -0.179508
     94 C30        -4.2960   -4.3560    3.2710 c3        1 MOL     -0.234712
     95 C31        -2.7090   -4.2060    3.2190 c         1 MOL      0.566434
     96 O16        -1.9230   -4.5950    4.1260 o         1 MOL     -0.559440
     97 C32        -4.8140   -3.4590    4.4220 c3        1 MOL      0.400842
     98 C33        -4.5730   -1.9280    4.1500 c3        1 MOL     -0.479108
     99 C34        -6.3580   -3.6240    4.5780 c3        1 MOL     -0.479108
    100 H41        -4.5490   -3.2740    1.5120 hn        1 MOL      0.192580
    101 H42        -4.5470   -5.3910    3.5230 h1        1 MOL      0.133066
    102 H43        -4.3100   -3.7500    5.3490 hc        1 MOL     -0.053064
    103 H44        -5.0090   -1.6170    3.2020 hc        1 MOL      0.118261
    104 H45        -5.0130   -1.3990    4.9870 hc        1 MOL      0.118261
    105 H46        -3.4870   -1.8100    4.1710 hc        1 MOL      0.118261
    106 H47        -6.4480   -4.6970    4.7230 hc        1 MOL      0.118261
    107 H48        -6.6600   -3.0630    5.4570 hc        1 MOL      0.118261
    108 H49        -6.9300   -3.3950    3.6710 hc        1 MOL      0.118261
    109 N10        -2.1210   -3.6970    2.0660 n         1 MOL     -0.556215
    110 C35        -0.6850   -3.3170    1.9270 c3        1 MOL      0.378358
    111 C36        -0.0190   -3.8350    0.5960 c         1 MOL      0.485560
    112 O17        -0.7270   -4.3740   -0.2870 o         1 MOL     -0.542523
    113 C37        -0.6230   -1.8280    2.2370 c3        1 MOL     -0.127780
    114 C38         0.6900   -1.3430    2.8340 c         1 MOL      0.585239
    115 N11         0.5120   -0.4310    3.7580 n         1 MOL     -0.807544
    116 O18         1.7190   -1.6530    2.4050 o         1 MOL     -0.472678
    117 H50        -2.7640   -3.5170    1.3030 hn        1 MOL      0.261389
    118 H51        -0.0600   -3.8580    2.6390 h1        1 MOL      0.006429
    119 H52        -1.4560   -1.5510    2.8750 hc        1 MOL      0.049952
    120 H53        -0.9110   -1.3220    1.3220 hc        1 MOL      0.049952
    121 H54        -0.3760   -0.0100    3.9760 hn        1 MOL      0.360503
    122 H55         1.3910   -0.0840    4.1300 hn        1 MOL      0.360503
    123 N12         1.2750   -3.6850    0.4150 n         1 MOL     -0.484088
    124 C39         2.1380   -4.3070   -0.6780 c3        1 MOL      0.097804
    125 C40         3.5320   -4.0500   -0.2400 c         1 MOL      0.554456
    126 O19         3.8390   -3.1480    0.5250 o         1 MOL     -0.544129
    127 C41         1.8890   -3.6300   -2.0220 c3        1 MOL     -0.176410
    128 C42         2.5380   -2.2360   -2.2210 ca        1 MOL      0.007545
    129 C43         2.0090   -1.0460   -1.6520 ca        1 MOL     -0.101329
    130 C44         3.7240   -2.1660   -3.0950 ca        1 MOL     -0.101329
    131 C45         2.6620    0.2490   -1.9160 ca        1 MOL     -0.387325
    132 C46         4.3550   -0.9260   -3.3810 ca        1 MOL     -0.387325
    133 C47         3.8220    0.2630   -2.7190 ca        1 MOL      0.511354
    134 O20         4.4390    1.4250   -2.9310 oh        1 MOL     -0.666246
    135 H56         1.6340   -2.9250    0.9730 hn        1 MOL      0.243568
    136 H57         1.8690   -5.3690   -0.7250 h1        1 MOL      0.089814
    137 H58         0.8290   -3.4790   -2.2020 hc        1 MOL      0.084806
    138 H59         2.2850   -4.2360   -2.8330 hc        1 MOL      0.084806
    139 H60         1.0740   -1.1060   -1.1140 ha        1 MOL      0.146310
    140 H61         4.1290   -3.1000   -3.4550 ha        1 MOL      0.146310
    141 H62         2.1800    1.1210   -1.5020 ha        1 MOL      0.181515
    142 H63         5.2070   -0.9210   -4.0390 ha        1 MOL      0.181515
    143 H64         4.2310    2.0560   -2.2440 ho        1 MOL      0.481794
    144 N13         4.4340   -4.8730   -0.8150 n         1 MOL     -0.520745
    145 C48         5.8940   -4.8140   -0.5470 c3        1 MOL      0.077543
    146 C49         6.7300   -4.1550   -1.6330 c         1 MOL      0.506096
    147 O21         7.0520   -4.7520   -2.6210 o         1 MOL     -0.573183
    148 C50         6.3910   -6.2410   -0.3300 c3        1 MOL     -0.057299
    149 C51         5.8710   -6.6390    1.0570 c3        1 MOL     -0.319309
    150 C52         6.0550   -8.1290    1.2800 c         1 MOL      0.775454
    151 O22         5.6340   -8.9440    0.4720 o         1 MOL     -0.722360
    152 O23         6.6460   -8.4870    2.3160 o         1 MOL     -0.722360
    153 H65         4.1090   -5.6130   -1.4250 hn        1 MOL      0.329998
    154 H66         6.0950   -4.2930    0.3970 h1        1 MOL      0.115112
    155 H67         7.4780   -6.3060   -0.3740 hc        1 MOL      0.050702
    156 H68         6.0260   -6.9010   -1.1140 hc        1 MOL      0.050702
    157 H69         4.8070   -6.4820    1.1760 hc        1 MOL      0.074098
    158 H70         6.4400   -6.0470    1.7620 hc        1 MOL      0.074098
    159 N14         7.0920   -2.8830   -1.6070 n         1 MOL     -0.469932
    160 C53         6.7320   -1.8760   -0.5510 c3        1 MOL     -0.120985
    161 C54         7.4640   -2.1390    0.7640 c         1 MOL      0.677982
    162 O24         8.4460   -2.8680    0.8620 o         1 MOL     -0.540775
    163 C55         6.9860   -0.4080   -1.0210 c3        1 MOL      0.519868
    164 C56         8.4780   -0.0720   -1.1530 c3        1 MOL     -0.351868
    165 C57         8.6990    1.4310   -1.4470 c         1 MOL      0.769289
    166 O25         8.3470    2.1560   -0.5370 o         1 MOL     -0.684548
    167 O26         9.3330    1.7690   -2.4840 o         1 MOL     -0.684548
    168 H71         7.4890   -2.5200   -2.4590 hn        1 MOL      0.308258
    169 H72         5.6490   -1.9520   -0.4650 h1        1 MOL      0.152957
    170 H73         6.5720    0.2910   -0.2850 hc        1 MOL     -0.186585
    171 H74         6.5210   -0.2310   -1.9810 hc        1 MOL     -0.186585
    172 H75         9.0020   -0.6600   -1.9180 hc        1 MOL      0.031482
    173 H76         8.8720   -0.2840   -0.1550 hc        1 MOL      0.031482
    174 N15         6.9710   -1.5670    1.8850 n         1 MOL     -0.455892
    175 C58         7.2440   -1.9970    3.2750 c3        1 MOL     -0.506082
    176 H77         6.3360   -2.4150    3.7110 h1        1 MOL      0.185803
    177 H78         8.0270   -2.7550    3.2750 h1        1 MOL      0.185803
    178 H79         7.5670   -1.1390    3.8640 h1        1 MOL      0.185803
    179 H80         6.2220   -0.9000    1.7490 hn        1 MOL      0.297276
    180 Ca1         6.6730    4.1420   -0.0820 Ca        1 MOL      1.704740
    181 O27         9.4400    5.1270    0.1800 oh        1 MOL     -0.883248
    182 H81         9.7690    5.3280    1.0570 ho        1 MOL      0.423296
    183 H82        10.0570    5.5550   -0.4110 ho        1 MOL      0.423296
    184 O28         8.1140    2.9550    1.9810 oh        1 MOL     -0.883248
    185 H83         8.3850    2.4500    2.7500 ho        1 MOL      0.423296
    186 H84         8.6160    2.5660    1.2580 ho        1 MOL      0.423296
    187 O29         7.0760    6.6510   -1.5890 oh        1 MOL     -0.883248
    188 H85         7.4150    6.4150   -2.4480 ho        1 MOL      0.423296
    189 H86         6.2160    7.0320   -1.7670 ho        1 MOL      0.423296
    190 O30         6.6730    3.5540   -2.8130 oh        1 MOL     -0.883248
    191 H87         5.8430    3.4970   -3.2860 ho        1 MOL      0.423296
    192 H88         7.2850    3.0410   -3.3460 ho        1 MOL      0.423296
@<TRIPOS>BOND
     1    1    2 1   
     2    1    4 1   
     3    1    5 1   
     4    1    6 1   
     5    2    3 2   
     6    2    7 1   
     7    7    8 1   
     8    7   15 1   
     9    8    9 1   
    10    8   11 1   
    11    8   16 1   
    12    9   10 2   
    13    9   19 1   
    14   11   12 1   
    15   11   17 1   
    16   11   18 1   
    17   12   13 1   
    18   12   14 1   
    19   19   20 1   
    20   19   27 1   
    21   20   21 1   
    22   20   23 1   
    23   20   28 1   
    24   21   22 2   
    25   21   38 1   
    26   23   24 1   
    27   23   25 1   
    28   23   29 1   
    29   24   26 1   
    30   24   30 1   
    31   24   31 1   
    32   25   32 1   
    33   25   33 1   
    34   25   34 1   
    35   26   35 1   
    36   26   36 1   
    37   26   37 1   
    38   38   39 1   
    39   38   46 1   
    40   39   40 1   
    41   39   42 1   
    42   39   47 1   
    43   40   41 2   
    44   40   50 1   
    45   42   43 1   
    46   42   48 1   
    47   42   49 1   
    48   43   44 1   
    49   43   45 1   
    50   50   51 1   
    51   50   54 1   
    52   51   52 1   
    53   51   55 1   
    54   51   56 1   
    55   52   53 2   
    56   52   57 1   
    57   57   58 1   
    58   57   65 1   
    59   58   59 1   
    60   58   61 1   
    61   58   66 1   
    62   59   60 2   
    63   59   69 1   
    64   61   62 1   
    65   61   67 1   
    66   61   68 1   
    67   62   63 1   
    68   62   64 1   
    69   69   70 1   
    70   69   73 1   
    71   70   71 1   
    72   70   74 1   
    73   70   75 1   
    74   71   72 2   
    75   71   76 1   
    76   76   77 1   
    77   76   85 1   
    78   77   78 1   
    79   77   80 1   
    80   77   86 1   
    81   78   79 2   
    82   78   93 1   
    83   80   81 1   
    84   80   87 1   
    85   80   88 1   
    86   81   82 1   
    87   81   89 1   
    88   81   90 1   
    89   82   83 1   
    90   82   84 2   
    91   83   91 1   
    92   83   92 1   
    93   93   94 1   
    94   93  100 1   
    95   94   95 1   
    96   94   97 1   
    97   94  101 1   
    98   95   96 2   
    99   95  109 1   
   100   97   98 1   
   101   97   99 1   
   102   97  102 1   
   103   98  103 1   
   104   98  104 1   
   105   98  105 1   
   106   99  106 1   
   107   99  107 1   
   108   99  108 1   
   109  109  110 1   
   110  109  117 1   
   111  110  111 1   
   112  110  113 1   
   113  110  118 1   
   114  111  112 2   
   115  111  123 1   
   116  113  114 1   
   117  113  119 1   
   118  113  120 1   
   119  114  115 1   
   120  114  116 2   
   121  115  121 1   
   122  115  122 1   
   123  123  124 1   
   124  123  135 1   
   125  124  125 1   
   126  124  127 1   
   127  124  136 1   
   128  125  126 2   
   129  125  144 1   
   130  127  128 1   
   131  127  137 1   
   132  127  138 1   
   133  128  129 ar  
   134  128  130 ar  
   135  129  131 ar  
   136  129  139 1   
   137  130  132 ar  
   138  130  140 1   
   139  131  133 ar  
   140  131  141 1   
   141  132  133 ar  
   142  132  142 1   
   143  133  134 1   
   144  134  143 1   
   145  144  145 1   
   146  144  153 1   
   147  145  146 1   
   148  145  148 1   
   149  145  154 1   
   150  146  147 2   
   151  146  159 1   
   152  148  149 1   
   153  148  155 1   
   154  148  156 1   
   155  149  150 1   
   156  149  157 1   
   157  149  158 1   
   158  150  151 1   
   159  150  152 1   
   160  159  160 1   
   161  159  168 1   
   162  160  161 1   
   163  160  163 1   
   164  160  169 1   
   165  161  162 2   
   166  161  174 1   
   167  163  164 1   
   168  163  170 1   
   169  163  171 1   
   170  164  165 1   
   171  164  172 1   
   172  164  173 1   
   173  165  166 1   
   174  165  167 1   
   175  174  175 1   
   176  174  179 1   
   177  175  176 1   
   178  175  177 1   
   179  175  178 1   
   180  181  182 1   
   181  181  183 1   
   182  184  185 1   
   183  184  186 1   
   184  187  188 1   
   185  187  189 1   
   186  190  191 1   
   187  190  192 1   
@<TRIPOS>SUBSTRUCTURE
     1 MOL         1 TEMP              0 ****  ****    0 ROOT
