@<TRIPOS>MOLECULE
MOL
  175   173     1     0     0
SMALL
resp


@<TRIPOS>ATOM
      1 C1         -6.4150    7.6110    1.8320 c3        1 MOL     -0.341543
      2 C2         -7.2330    6.7480    0.8270 c         1 MOL      0.802427
      3 O1         -6.9430    6.7160   -0.3370 o         1 MOL     -0.601643
      4 H1         -5.8850    6.9570    2.5250 hc        1 MOL      0.077948
      5 H2         -5.6950    8.2210    1.2870 hc        1 MOL      0.077948
      6 H3         -7.0910    8.2590    2.3900 hc        1 MOL      0.077948
      7 N1         -8.2110    5.9740    1.3450 n         1 MOL     -0.777871
      8 C3         -9.1230    5.1660    0.4990 c3        1 MOL      0.498715
      9 C4         -8.6280    3.8640   -0.1330 c         1 MOL      0.528781
     10 O2         -9.4580    3.0140   -0.5370 o         1 MOL     -0.550209
     11 C5        -10.5070    5.0930    1.1120 c3        1 MOL     -0.401996
     12 C6        -11.7400    4.8240    0.2580 c         1 MOL      0.763575
     13 O3        -11.8080    5.4070   -0.8400 o         1 MOL     -0.731649
     14 O4        -12.7590    4.2420    0.7360 o         1 MOL     -0.731649
     15 H4         -8.2970    5.7710    2.3340 hn        1 MOL      0.339197
     16 H5         -9.3250    5.7630   -0.3890 h1        1 MOL     -0.002536
     17 H6        -10.7180    6.0290    1.6130 hc        1 MOL      0.043414
     18 H7        -10.3880    4.4110    1.9550 hc        1 MOL      0.043414
     19 N2         -7.3300    3.6800   -0.2570 n         1 MOL     -0.751701
     20 C7         -6.6850    2.6270   -1.0230 c3        1 MOL      0.687526
     21 C8         -5.3530    2.2020   -0.3600 c         1 MOL      0.273715
     22 O5         -4.7020    3.0330    0.3550 o         1 MOL     -0.507906
     23 C9         -6.3950    3.1160   -2.4300 c3        1 MOL     -0.452590
     24 H8         -6.7360    4.4840   -0.1290 hn        1 MOL      0.304900
     25 H9         -7.3270    1.7630   -1.1400 h1        1 MOL     -0.083284
     26 H10        -7.2590    3.4140   -3.0240 hc        1 MOL      0.120498
     27 H11        -5.6530    3.8950   -2.2710 hc        1 MOL      0.120498
     28 H12        -5.7850    2.4160   -2.9910 hc        1 MOL      0.120498
     29 N3         -4.7970    0.9980   -0.5720 n         1 MOL     -0.272324
     30 C10        -5.3780   -0.1100   -1.4460 c3        1 MOL     -0.172365
     31 C11        -5.4430   -1.4100   -0.6740 c         1 MOL      0.461716
     32 O6         -4.5410   -1.6920    0.1530 o         1 MOL     -0.542066
     33 C12        -4.4780   -0.2630   -2.7100 c3        1 MOL     -0.199247
     34 C13        -2.9630   -0.5470   -2.4140 c         1 MOL      0.721067
     35 O7         -2.3680   -1.6000   -2.7700 o         1 MOL     -0.717983
     36 O8         -2.3210    0.2750   -1.6920 o         1 MOL     -0.717983
     37 H13        -3.8470    0.8670   -0.2630 hn        1 MOL      0.296321
     38 H14        -6.4020    0.1740   -1.7010 h1        1 MOL      0.115369
     39 H15        -4.4500    0.6400   -3.3230 hc        1 MOL      0.053333
     40 H16        -4.8280   -1.1140   -3.2850 hc        1 MOL      0.053333
     41 N4         -6.4360   -2.2630   -1.0230 n         1 MOL     -0.271820
     42 C14        -6.6900   -3.5910   -0.5200 c3        1 MOL     -0.059342
     43 C15        -6.4400   -4.6160   -1.5470 c         1 MOL      0.545473
     44 O9         -7.3540   -4.9380   -2.2670 o         1 MOL     -0.561331
     45 H17        -7.1300   -1.8490   -1.6290 hn        1 MOL      0.280498
     46 H18        -7.7250   -3.6260   -0.1680 h1        1 MOL      0.071272
     47 H19        -6.0710   -3.7420    0.3670 h1        1 MOL      0.071272
     48 N5         -5.2720   -5.2400   -1.6670 n         1 MOL     -0.485240
     49 C16        -4.0740   -4.7650   -1.1090 c3        1 MOL      0.239095
     50 C17        -3.7910   -5.3940    0.2560 c         1 MOL      0.396814
     51 O10        -3.4680   -6.6030    0.3250 o         1 MOL     -0.517784
     52 C18        -2.9460   -5.1650   -2.1360 c3        1 MOL     -0.384461
     53 C19        -1.5360   -4.5860   -1.8090 c         1 MOL      0.655987
     54 N6         -0.5390   -4.6650   -2.6930 n         1 MOL     -0.752397
     55 O11        -1.3700   -3.9220   -0.8130 o         1 MOL     -0.529184
     56 H20        -5.2060   -6.0270   -2.3060 hn        1 MOL      0.311006
     57 H21        -3.9710   -3.6790   -1.0180 h1        1 MOL      0.106010
     58 H22        -3.1610   -4.7510   -3.1120 hc        1 MOL      0.103508
     59 H23        -2.8550   -6.2510   -2.0770 hc        1 MOL      0.103508
     60 H24        -0.8050   -5.0540   -3.5940 hn        1 MOL      0.346530
     61 H25         0.3440   -4.2500   -2.4750 hn        1 MOL      0.346530
     62 N7         -3.7520   -4.4750    1.2570 n         1 MOL     -0.357367
     63 C20        -3.5650   -4.8960    2.6870 c3        1 MOL     -0.158976
     64 C21        -2.0760   -4.9670    2.9970 c         1 MOL      0.434653
     65 O12        -1.8780   -5.3460    4.1420 o         1 MOL     -0.558370
     66 H26        -3.8690   -3.5100    0.9780 hn        1 MOL      0.288654
     67 H27        -4.0050   -5.8910    2.7920 h1        1 MOL      0.124626
     68 H28        -4.0810   -4.3000    3.4460 h1        1 MOL      0.124626
     69 N8         -1.1190   -4.8630    2.0520 n         1 MOL     -0.120833
     70 C22         0.3530   -5.0440    2.1770 c3        1 MOL     -0.121764
     71 C23         1.0500   -3.7260    1.9570 c         1 MOL      0.339513
     72 O13         0.7420   -2.9280    1.0620 o         1 MOL     -0.518783
     73 C24         1.0420   -6.1120    1.2570 c3        1 MOL      0.414795
     74 C25         0.6080   -7.5510    1.6580 c3        1 MOL     -0.450402
     75 O14         0.7720   -6.0120   -0.1400 oh        1 MOL     -0.685145
     76 H29        -1.5100   -4.5310    1.1850 hn        1 MOL      0.201316
     77 H30         0.6080   -5.4050    3.1650 h1        1 MOL      0.063520
     78 H31         2.1210   -5.9430    1.2660 h1        1 MOL      0.009221
     79 H32         1.1740   -5.1810   -0.4200 ho        1 MOL      0.543765
     80 H33         1.1810   -8.2680    1.0770 hc        1 MOL      0.117409
     81 H34         0.8450   -7.7830    2.6950 hc        1 MOL      0.117409
     82 H35        -0.4590   -7.6350    1.4540 hc        1 MOL      0.117409
     83 N9          2.0440   -3.4390    2.7500 n         1 MOL     -0.211345
     84 C26         3.0680   -2.3610    2.4200 c3        1 MOL      0.067868
     85 C27         3.9980   -2.8410    1.2680 c         1 MOL      0.218505
     86 O15         4.7780   -3.7950    1.5110 o         1 MOL     -0.529886
     87 C28         3.8110   -1.8540    3.6650 c3        1 MOL      0.049623
     88 C29         4.9150   -0.8580    3.3690 c3        1 MOL      0.209396
     89 C30         2.7960   -1.2670    4.6320 c3        1 MOL     -0.323068
     90 C31         5.8770   -0.5620    4.5510 c3        1 MOL     -0.175565
     91 H36         2.3750   -4.2090    3.3170 hn        1 MOL      0.216426
     92 H37         2.4860   -1.5180    2.0440 h1        1 MOL      0.045248
     93 H38         4.3030   -2.7040    4.1470 hc        1 MOL      0.013298
     94 H39         4.5090    0.1150    3.0720 hc        1 MOL     -0.030999
     95 H40         5.5500   -1.1570    2.5360 hc        1 MOL     -0.030999
     96 H41         2.0270   -1.9630    4.9780 hc        1 MOL      0.081727
     97 H42         3.3570   -0.7280    5.3920 hc        1 MOL      0.081727
     98 H43         2.3110   -0.4960    4.0280 hc        1 MOL      0.081727
     99 H44         6.0520   -1.3640    5.2670 hc        1 MOL      0.028766
    100 H45         6.8560   -0.2200    4.1940 hc        1 MOL      0.028766
    101 H46         5.5080    0.2990    5.1120 hc        1 MOL      0.028766
    102 N10         4.0410   -2.1570    0.1150 n         1 MOL     -0.065930
    103 C32         4.7500   -2.4690   -1.1830 c3        1 MOL      0.218427
    104 C33         5.9080   -1.5340   -1.5960 c         1 MOL      0.410450
    105 O16         6.4530   -1.6100   -2.7260 o         1 MOL     -0.524589
    106 C34         3.7280   -2.5810   -2.3420 c3        1 MOL     -0.352455
    107 C35         2.3870   -3.1890   -1.8520 c         1 MOL      0.924962
    108 O17         2.4070   -4.2680   -1.2130 o         1 MOL     -0.756958
    109 O18         1.2900   -2.7570   -2.2860 o         1 MOL     -0.756958
    110 H47         3.3580   -1.4080    0.0770 hn        1 MOL      0.036091
    111 H48         5.1800   -3.4620   -1.0550 h1        1 MOL      0.045516
    112 H49         4.1070   -3.1610   -3.1810 hc        1 MOL      0.083525
    113 H50         3.6160   -1.5470   -2.6820 hc        1 MOL      0.083525
    114 N11         6.1900   -0.6030   -0.6710 n         1 MOL     -0.479046
    115 C36         6.9380    0.6160   -1.0270 c3        1 MOL      0.506132
    116 C37         6.3890    1.8870   -0.3730 c         1 MOL      0.339064
    117 O19         6.0990    1.8700    0.8290 o         1 MOL     -0.533343
    118 C38         8.3930    0.3730   -0.6860 c3        1 MOL     -0.548525
    119 C39         9.3630    1.4200   -1.0860 ca        1 MOL      0.308680
    120 C40         9.6850    2.4940   -0.2190 ca        1 MOL     -0.292514
    121 C41         9.9360    1.4040   -2.3960 ca        1 MOL     -0.292514
    122 C42        10.4310    3.6310   -0.6050 ca        1 MOL     -0.027379
    123 C43        10.8560    2.4430   -2.7540 ca        1 MOL     -0.027379
    124 C44        11.1320    3.5450   -1.8540 ca        1 MOL     -0.210489
    125 H51         5.6370   -0.5470    0.1770 hn        1 MOL      0.237765
    126 H52         6.7140    0.6460   -2.0940 h1        1 MOL     -0.035192
    127 H53         8.7450   -0.5950   -1.0420 hc        1 MOL      0.165209
    128 H54         8.4720    0.4000    0.4050 hc        1 MOL      0.165209
    129 H55         9.3040    2.5180    0.7960 ha        1 MOL      0.155245
    130 H56         9.7480    0.5620   -3.0350 ha        1 MOL      0.155245
    131 H57        10.6410    4.4640    0.0480 ha        1 MOL      0.098279
    132 H58        11.4410    2.3760   -3.6580 ha        1 MOL      0.098279
    133 H59        11.7540    4.3550   -2.1800 ha        1 MOL      0.122059
    134 N12         6.3690    3.0110   -1.1070 n         1 MOL     -0.065799
    135 C45         6.4710    4.3920   -0.5870 c3        1 MOL     -0.029829
    136 C46         5.1740    5.0480    0.0260 c         1 MOL      0.496425
    137 O20         5.0560    6.2140    0.4150 o         1 MOL     -0.552928
    138 C47         7.1090    5.2130   -1.7060 c3        1 MOL     -0.170318
    139 C48         6.7760    4.4660   -2.9970 c3        1 MOL     -0.019702
    140 C49         6.7430    3.0630   -2.4940 c3        1 MOL     -0.263764
    141 H60         7.1830    4.3720    0.2370 h1        1 MOL      0.075630
    142 H61         6.7910    6.2550   -1.6800 hc        1 MOL      0.076909
    143 H62         8.1820    5.1250   -1.5050 hc        1 MOL      0.076909
    144 H63         5.7980    4.6780   -3.4160 hc        1 MOL      0.048755
    145 H64         7.5130    4.4520   -3.8030 hc        1 MOL      0.048755
    146 H65         6.0160    2.4450   -3.0240 h1        1 MOL      0.126078
    147 H66         7.7700    2.8070   -2.7230 h1        1 MOL      0.126078
    148 N13         4.1570    4.2170    0.1150 n         1 MOL     -0.178725
    149 C50         2.8560    4.4700    0.7660 c3        1 MOL     -0.361754
    150 C51         2.8150    4.8620    2.1940 c         1 MOL      0.604217
    151 O21         1.8320    5.3950    2.6550 o         1 MOL     -0.538957
    152 C52         1.8720    3.3840    0.4950 c3        1 MOL     -0.123425
    153 C53         2.4240    2.0680    0.9490 c3        1 MOL      0.036185
    154 C54         1.4390    0.9400    0.5740 c         1 MOL      0.736067
    155 O22         1.9100   -0.1070    0.0470 o         1 MOL     -0.712621
    156 O23         0.2360    1.0650    0.8160 o         1 MOL     -0.712621
    157 H67         4.2360    3.3730   -0.4430 hn        1 MOL      0.203816
    158 H68         2.4900    5.2550    0.0990 h1        1 MOL      0.161864
    159 H69         1.6730    3.3470   -0.5670 hc        1 MOL      0.094920
    160 H70         0.9410    3.5800    1.0410 hc        1 MOL      0.094920
    161 H71         2.5540    2.0480    2.0280 hc        1 MOL     -0.017789
    162 H72         3.4270    1.9190    0.5360 hc        1 MOL     -0.017789
    163 N14         3.9510    4.7270    2.8240 n         1 MOL     -0.191000
    164 C55         4.2690    5.1200    4.1850 c3        1 MOL     -0.085854
    165 H73         4.8380    4.3260    4.6690 h1        1 MOL      0.057797
    166 H74         4.8620    6.0330    4.1710 h1        1 MOL      0.057797
    167 H75         3.3460    5.2930    4.7380 h1        1 MOL      0.057797
    168 H76         4.7320    4.4680    2.2380 hn        1 MOL      0.193623
    169 Ca1        -0.3080   -1.4050   -0.8540 Ca        1 MOL      1.700962
    170 O24        -2.1020   -1.6020    1.0370 oh        1 MOL     -0.891501
    171 H77        -3.0320   -1.5620    0.8340 ho        1 MOL      0.420797
    172 H78        -2.0390   -1.2220    1.9150 ho        1 MOL      0.420797
    173 O25         0.6910    0.1960   -2.9450 oh        1 MOL     -0.891501
    174 H79         0.4530    1.1080   -3.0590 ho        1 MOL      0.420797
    175 H80         0.5900   -0.1990   -3.8150 ho        1 MOL      0.420797
@<TRIPOS>BOND
     1    1    2 1   
     2    1    4 1   
     3    1    5 1   
     4    1    6 1   
     5    2    3 2   
     6    2    7 1   
     7    7    8 1   
     8    7   15 1   
     9    8    9 1   
    10    8   11 1   
    11    8   16 1   
    12    9   10 2   
    13    9   19 1   
    14   11   12 1   
    15   11   17 1   
    16   11   18 1   
    17   12   13 1   
    18   12   14 1   
    19   19   20 1   
    20   19   24 1   
    21   20   21 1   
    22   20   23 1   
    23   20   25 1   
    24   21   22 2   
    25   21   29 1   
    26   23   26 1   
    27   23   27 1   
    28   23   28 1   
    29   29   30 1   
    30   29   37 1   
    31   30   31 1   
    32   30   33 1   
    33   30   38 1   
    34   31   32 2   
    35   31   41 1   
    36   33   34 1   
    37   33   39 1   
    38   33   40 1   
    39   34   35 1   
    40   34   36 1   
    41   41   42 1   
    42   41   45 1   
    43   42   43 1   
    44   42   46 1   
    45   42   47 1   
    46   43   44 2   
    47   43   48 1   
    48   48   49 1   
    49   48   56 1   
    50   49   50 1   
    51   49   52 1   
    52   49   57 1   
    53   50   51 2   
    54   50   62 1   
    55   52   53 1   
    56   52   58 1   
    57   52   59 1   
    58   53   54 1   
    59   53   55 2   
    60   54   60 1   
    61   54   61 1   
    62   62   63 1   
    63   62   66 1   
    64   63   64 1   
    65   63   67 1   
    66   63   68 1   
    67   64   65 2   
    68   64   69 1   
    69   69   70 1   
    70   69   76 1   
    71   70   71 1   
    72   70   73 1   
    73   70   77 1   
    74   71   72 2   
    75   71   83 1   
    76   73   74 1   
    77   73   75 1   
    78   73   78 1   
    79   74   80 1   
    80   74   81 1   
    81   74   82 1   
    82   75   79 1   
    83   83   84 1   
    84   83   91 1   
    85   84   85 1   
    86   84   87 1   
    87   84   92 1   
    88   85   86 2   
    89   85  102 1   
    90   87   88 1   
    91   87   89 1   
    92   87   93 1   
    93   88   90 1   
    94   88   94 1   
    95   88   95 1   
    96   89   96 1   
    97   89   97 1   
    98   89   98 1   
    99   90   99 1   
   100   90  100 1   
   101   90  101 1   
   102  102  103 1   
   103  102  110 1   
   104  103  104 1   
   105  103  106 1   
   106  103  111 1   
   107  104  105 2   
   108  104  114 1   
   109  106  107 1   
   110  106  112 1   
   111  106  113 1   
   112  107  108 1   
   113  107  109 1   
   114  114  115 1   
   115  114  125 1   
   116  115  116 1   
   117  115  118 1   
   118  115  126 1   
   119  116  117 2   
   120  116  134 1   
   121  118  119 1   
   122  118  127 1   
   123  118  128 1   
   124  119  120 ar  
   125  119  121 ar  
   126  120  122 ar  
   127  120  129 1   
   128  121  123 ar  
   129  121  130 1   
   130  122  124 ar  
   131  122  131 1   
   132  123  124 ar  
   133  123  132 1   
   134  124  133 1   
   135  134  135 1   
   136  134  140 1   
   137  135  136 1   
   138  135  138 1   
   139  135  141 1   
   140  136  137 2   
   141  136  148 1   
   142  138  139 1   
   143  138  142 1   
   144  138  143 1   
   145  139  140 1   
   146  139  144 1   
   147  139  145 1   
   148  140  146 1   
   149  140  147 1   
   150  148  149 1   
   151  148  157 1   
   152  149  150 1   
   153  149  152 1   
   154  149  158 1   
   155  150  151 2   
   156  150  163 1   
   157  152  153 1   
   158  152  159 1   
   159  152  160 1   
   160  153  154 1   
   161  153  161 1   
   162  153  162 1   
   163  154  155 1   
   164  154  156 1   
   165  163  164 1   
   166  163  168 1   
   167  164  165 1   
   168  164  166 1   
   169  164  167 1   
   170  170  171 1   
   171  170  172 1   
   172  173  174 1   
   173  173  175 1   
@<TRIPOS>SUBSTRUCTURE
     1 MOL         1 TEMP              0 ****  ****    0 ROOT
