@<TRIPOS>MOLECULE
MOL
  192   187     1     0     0
SMALL
resp


@<TRIPOS>ATOM
      1 C1          1.2350    8.1180   -1.8570 c3        1 MOL     -0.329473
      2 C2          1.4340    6.6150   -1.7220 c         1 MOL      0.684495
      3 O1          1.3410    5.9430   -2.7350 o         1 MOL     -0.599609
      4 H1          0.3790    8.3150   -2.5010 hc        1 MOL      0.086913
      5 H2          1.0550    8.5510   -0.8720 hc        1 MOL      0.086913
      6 H3          2.1280    8.5660   -2.2930 hc        1 MOL      0.086913
      7 N1          1.8360    6.0580   -0.6230 n         1 MOL     -0.463587
      8 C3          2.1760    4.6200   -0.4730 c3        1 MOL      0.199076
      9 C4          0.9330    3.7480   -0.3390 c         1 MOL      0.174202
     10 O2          1.0270    2.5260   -0.4780 o         1 MOL     -0.419379
     11 C5          3.2490    4.4610    0.6380 c3        1 MOL     -0.223717
     12 C6          2.7480    4.8030    2.0230 c         1 MOL      0.705657
     13 O3          2.4000    3.8420    2.7730 o         1 MOL     -0.707226
     14 O4          2.7590    5.9900    2.4270 o         1 MOL     -0.707226
     15 H4          2.0620    6.6090    0.1970 hn        1 MOL      0.259509
     16 H5          2.6790    4.2720   -1.3810 h1        1 MOL      0.099847
     17 H6          4.0280    5.1520    0.3090 hc        1 MOL      0.063815
     18 H7          3.6940    3.4610    0.6400 hc        1 MOL      0.063815
     19 N2         -0.2360    4.3710   -0.0180 n         1 MOL     -0.400043
     20 C7         -1.5350    3.7430    0.4420 c3        1 MOL      0.359142
     21 C8         -2.6360    3.4720   -0.6120 c         1 MOL      0.393765
     22 O5         -2.9520    4.3650   -1.3940 o         1 MOL     -0.544906
     23 C9         -2.0450    4.3690    1.7160 c3        1 MOL     -0.105789
     24 C10        -0.9690    4.3240    2.8090 c3        1 MOL      0.080409
     25 C11        -1.4460    4.5430    4.2310 c3        1 MOL      0.292686
     26 C12        -0.4770    4.0700    5.3130 c3        1 MOL     -0.011745
     27 N3          0.9480    4.5360    5.0240 n4        1 MOL     -0.408403
     28 H8         -0.1810    5.3790   -0.0010 hn        1 MOL      0.245940
     29 H9         -1.1830    2.7500    0.7180 h1        1 MOL      0.102830
     30 H10        -2.9430    3.8960    2.1280 hc        1 MOL      0.009826
     31 H11        -2.2490    5.4070    1.4920 hc        1 MOL      0.009826
     32 H12        -0.2050    5.0730    2.5830 hc        1 MOL     -0.028716
     33 H13        -0.5010    3.3340    2.7780 hc        1 MOL     -0.028716
     34 H14        -2.4270    4.1450    4.5010 hc        1 MOL     -0.064188
     35 H15        -1.5980    5.6050    4.3840 hc        1 MOL     -0.064188
     36 H16        -0.5960    3.0110    5.4960 hx        1 MOL      0.070084
     37 H17        -0.8210    4.5070    6.2510 hx        1 MOL      0.070084
     38 H18         1.2080    4.4770    4.0540 hn        1 MOL      0.315082
     39 H19         1.0690    5.5020    5.2720 hn        1 MOL      0.315082
     40 H20         1.6010    4.0150    5.5900 hn        1 MOL      0.315082
     41 N4         -3.1750    2.2680   -0.7180 n         1 MOL     -0.333616
     42 C13        -3.1870    1.1030    0.2250 c3        1 MOL     -0.243237
     43 C14        -3.5560    1.4500    1.6770 c         1 MOL      0.444265
     44 O6         -2.7100    1.5250    2.5720 o         1 MOL     -0.584850
     45 C15        -2.0110    0.1780    0.1100 c3        1 MOL     -0.196553
     46 C16        -1.6770   -0.3810   -1.2170 c         1 MOL      0.528216
     47 O7         -0.6030   -0.8930   -1.4760 o         1 MOL     -0.707703
     48 O8         -2.5330   -0.4490   -2.0780 o         1 MOL     -0.707703
     49 H21        -3.8220    2.1920   -1.4880 hn        1 MOL      0.266886
     50 H22        -4.0490    0.5180   -0.1170 h1        1 MOL      0.229913
     51 H23        -2.1340   -0.5920    0.8800 hc        1 MOL      0.107054
     52 H24        -1.0810    0.6890    0.3350 hc        1 MOL      0.107054
     53 N5         -4.8200    1.7930    1.9680 n         1 MOL     -0.282159
     54 C17        -5.9090    1.8020    1.0030 c3        1 MOL     -0.001359
     55 C18        -7.3140    2.0420    1.6660 c         1 MOL      0.550518
     56 O9         -7.5130    2.2720    2.8300 o         1 MOL     -0.539137
     57 H25        -5.0320    1.9800    2.9390 hn        1 MOL      0.264501
     58 H26        -5.8760    0.8000    0.5830 h1        1 MOL      0.044705
     59 H27        -5.7730    2.5000    0.1870 h1        1 MOL      0.044705
     60 N6         -8.4080    1.8370    0.9090 n         1 MOL     -0.459067
     61 C19        -8.4460    1.5570   -0.5260 c3        1 MOL      0.120944
     62 C20        -7.9840    0.0790   -0.8870 c         1 MOL      0.493212
     63 O10        -8.6780   -0.8630   -0.5240 o         1 MOL     -0.486529
     64 C21        -9.8050    1.8370   -1.1140 c3        1 MOL     -0.224193
     65 C22       -10.6660    3.0890   -0.6160 c         1 MOL      0.643119
     66 O11       -10.4230    3.7120    0.4740 o         1 MOL     -0.600477
     67 O12       -11.6770    3.4540   -1.2850 o         1 MOL     -0.600477
     68 H28        -9.2680    1.8530    1.4420 hn        1 MOL      0.328914
     69 H29        -7.6510    2.1410   -0.9840 h1        1 MOL     -0.003796
     70 H30       -10.3800    0.9110   -1.0790 hc        1 MOL      0.058121
     71 H31        -9.6140    1.9680   -2.1720 hc        1 MOL      0.058121
     72 N7         -6.8060   -0.0690   -1.5460 n         1 MOL     -0.409559
     73 C23        -6.2040   -1.3540   -1.8620 c3        1 MOL     -0.098032
     74 C24        -5.5660   -2.1430   -0.7170 c         1 MOL      0.707418
     75 O13        -5.5060   -1.6820    0.4070 o         1 MOL     -0.505967
     76 H32        -6.2400    0.6930   -1.9050 hn        1 MOL      0.277825
     77 H33        -5.3870   -1.2220   -2.5710 h1        1 MOL      0.064247
     78 H34        -6.9590   -1.9900   -2.3310 h1        1 MOL      0.064247
     79 N8         -5.1700   -3.3630   -1.0680 n         1 MOL     -0.589558
     80 C25        -4.5590   -4.2380   -0.0290 c3        1 MOL     -0.024327
     81 C26        -3.1540   -3.7770    0.4280 c         1 MOL      0.358140
     82 O14        -2.3950   -3.2680   -0.4300 o         1 MOL     -0.446376
     83 C27        -4.7210   -5.7720   -0.3250 c3        1 MOL      0.500428
     84 C28        -3.9760   -6.2790   -1.6090 c3        1 MOL     -0.336608
     85 O15        -6.1030   -6.1860   -0.3890 oh        1 MOL     -0.640487
     86 H35        -5.0980   -3.6310   -2.0400 hn        1 MOL      0.326907
     87 H36        -5.1550   -4.1630    0.8770 h1        1 MOL      0.075011
     88 H37        -4.4150   -6.3170    0.5700 h1        1 MOL     -0.043111
     89 H38        -6.5110   -6.1690    0.4790 ho        1 MOL      0.396765
     90 H39        -4.3620   -5.7480   -2.4770 hc        1 MOL      0.090284
     91 H40        -2.8850   -6.2490   -1.5010 hc        1 MOL      0.090284
     92 H41        -4.1960   -7.3400   -1.7230 hc        1 MOL      0.090284
     93 N9         -2.6460   -4.0920    1.6320 n         1 MOL     -0.294756
     94 C29        -1.3650   -3.7420    2.1780 c3        1 MOL     -0.259602
     95 C30        -0.3750   -4.7430    1.5720 c         1 MOL      0.586269
     96 O16        -0.3520   -5.9000    1.9270 o         1 MOL     -0.560889
     97 C31        -1.2670   -3.8270    3.7420 c3        1 MOL      0.250189
     98 C32        -2.2530   -2.8470    4.4490 c3        1 MOL     -0.098780
     99 C33         0.1250   -3.6740    4.3740 c3        1 MOL     -0.119905
    100 C34        -2.5910   -2.9130    5.9570 c3        1 MOL     -0.370262
    101 H42        -3.2390   -4.6060    2.2760 hn        1 MOL      0.250472
    102 H43        -1.0000   -2.7470    1.9070 h1        1 MOL      0.059493
    103 H44        -1.5750   -4.8510    3.9650 hc        1 MOL     -0.006436
    104 H45        -3.2350   -2.8630    3.9560 hc        1 MOL      0.083032
    105 H46        -1.8260   -1.8570    4.2780 hc        1 MOL      0.083032
    106 H47         0.8920   -4.2440    3.8440 hc        1 MOL      0.021499
    107 H48         0.4410   -2.6860    4.0260 hc        1 MOL      0.021499
    108 H49         0.0800   -3.7680    5.4560 hc        1 MOL      0.021499
    109 H50        -3.3040   -3.7320    6.0280 hc        1 MOL      0.107548
    110 H51        -1.7440   -3.2450    6.5620 hc        1 MOL      0.107548
    111 H52        -3.0780   -1.9750    6.2510 hc        1 MOL      0.107548
    112 N10         0.5530   -4.2440    0.7630 n         1 MOL     -0.217052
    113 C35         1.6780   -5.0030    0.0790 c3        1 MOL     -0.346341
    114 C36         3.1000   -4.4720    0.4360 c         1 MOL      0.476166
    115 O17         4.0710   -5.2160    0.2810 o         1 MOL     -0.490574
    116 C37         1.4310   -5.0960   -1.4530 c3        1 MOL      0.393632
    117 C38         1.6590   -3.7800   -2.2260 c3        1 MOL     -0.392040
    118 O18         0.1080   -5.5400   -1.5810 oh        1 MOL     -0.656786
    119 H53         0.4600   -3.2580    0.5490 hn        1 MOL      0.300228
    120 H54         1.6520   -5.9640    0.5910 h1        1 MOL      0.171029
    121 H55         2.0030   -5.9280   -1.8550 h1        1 MOL      0.025050
    122 H56        -0.0130   -6.3480   -1.0720 ho        1 MOL      0.426103
    123 H57         1.1840   -3.0130   -1.6090 hc        1 MOL      0.129997
    124 H58         2.7370   -3.6620   -2.3440 hc        1 MOL      0.129997
    125 H59         1.2670   -3.9040   -3.2330 hc        1 MOL      0.129997
    126 N11         3.2080   -3.2250    0.8790 n         1 MOL     -0.441907
    127 C39         4.4940   -2.5330    1.2340 c3        1 MOL     -0.052259
    128 C40         5.6340   -2.4830    0.1420 c         1 MOL      0.413461
    129 O19         5.6840   -3.1280   -0.8750 o         1 MOL     -0.408696
    130 C41         4.9570   -3.1060    2.6200 c3        1 MOL      0.550642
    131 C42         3.9270   -3.0950    3.7950 c3        1 MOL     -0.346024
    132 O20         6.0990   -2.3160    3.0610 oh        1 MOL     -0.752180
    133 H60         2.4130   -2.6050    0.9680 hn        1 MOL      0.312450
    134 H61         4.1400   -1.5140    1.3920 h1        1 MOL      0.050390
    135 H62         5.2390   -4.1440    2.4680 h1        1 MOL      0.043471
    136 H63         5.7830   -1.6380    3.6650 ho        1 MOL      0.389508
    137 H64         4.4550   -3.4710    4.6760 hc        1 MOL      0.078308
    138 H65         3.6560   -2.0530    3.9560 hc        1 MOL      0.078308
    139 H66         3.0480   -3.7300    3.6530 hc        1 MOL      0.078308
    140 N12         6.6000   -1.5680    0.4200 n         1 MOL     -0.217401
    141 C43         7.7460   -1.2780   -0.4610 c3        1 MOL     -0.123471
    142 C44         7.3450   -0.4680   -1.7200 c         1 MOL      0.421639
    143 O21         8.0870   -0.5150   -2.7090 o         1 MOL     -0.550412
    144 C45         8.9990   -0.6010    0.1480 c3        1 MOL     -0.061975
    145 C46         8.6030    0.5900    0.9930 c3        1 MOL      0.018558
    146 C47         9.6560    0.8730    2.0560 c3        1 MOL     -0.005215
    147 C48         9.2340   -0.0940    3.2390 c3        1 MOL      0.103679
    148 N13         9.8260    0.2510    4.5260 n4        1 MOL     -0.321586
    149 H67         6.5970   -1.1340    1.3360 hn        1 MOL      0.184850
    150 H68         8.0990   -2.2150   -0.8930 h1        1 MOL      0.151131
    151 H69         9.7870   -0.3680   -0.5680 hc        1 MOL      0.061473
    152 H70         9.5940   -1.3310    0.7010 hc        1 MOL      0.061473
    153 H71         7.6230    0.6160    1.4610 hc        1 MOL      0.019379
    154 H72         8.6500    1.4410    0.3090 hc        1 MOL      0.019379
    155 H73         9.5070    1.8810    2.4320 hc        1 MOL      0.027600
    156 H74        10.6870    0.7980    1.7100 hc        1 MOL      0.027600
    157 H75         9.4280   -1.1160    2.9180 hx        1 MOL      0.043014
    158 H76         8.1640    0.0600    3.4330 hx        1 MOL      0.043014
    159 H77         9.5430    1.1790    4.8110 hn        1 MOL      0.251024
    160 H78         9.4460   -0.3610    5.2370 hn        1 MOL      0.251024
    161 H79        10.8280    0.1390    4.5210 hn        1 MOL      0.251024
    162 N14         6.2770    0.2590   -1.6830 n         1 MOL     -0.285099
    163 C49         5.6730    0.9800   -2.8070 c3        1 MOL      0.160837
    164 C50         6.2270    2.3660   -2.7280 c         1 MOL      0.248333
    165 O22         5.6060    3.2900   -2.1220 o         1 MOL     -0.471204
    166 C51         4.0840    0.9750   -2.6500 c3        1 MOL      0.158254
    167 C52         3.5220   -0.3750   -2.3750 c3        1 MOL      0.116792
    168 C53         2.9320   -1.0580   -3.6130 c         1 MOL      0.402276
    169 O23         1.6980   -1.1220   -3.7950 o         1 MOL     -0.647055
    170 O24         3.7640   -1.4550   -4.4700 o         1 MOL     -0.647055
    171 H80         5.7790    0.3350   -0.8070 hn        1 MOL      0.187221
    172 H81         6.0220    0.5270   -3.7440 h1        1 MOL      0.096527
    173 H82         3.7170    1.3670   -3.6030 hc        1 MOL     -0.050956
    174 H83         3.7420    1.6920   -1.9080 hc        1 MOL     -0.050956
    175 H84         2.8030   -0.3230   -1.5620 hc        1 MOL     -0.041838
    176 H85         4.2480   -1.0260   -1.8950 hc        1 MOL     -0.041838
    177 N15         7.2940    2.5960   -3.4800 n         1 MOL     -0.176710
    178 C54         7.9570    3.8880   -3.7050 c3        1 MOL     -0.212497
    179 H86         7.3100    4.5290   -4.3020 h1        1 MOL      0.102739
    180 H87         8.1560    4.3660   -2.7460 h1        1 MOL      0.102739
    181 H88         8.8960    3.7270   -4.2330 h1        1 MOL      0.102739
    182 H89         7.5580    1.8580   -4.1240 hn        1 MOL      0.235912
    183 Ca1        -0.7440   -0.9060   -4.0180 Ca        1 MOL      1.764410
    184 O25        -3.3090   -1.1100   -5.2170 oh        1 MOL     -0.921770
    185 H90        -3.9790   -0.4210   -5.1640 ho        1 MOL      0.457078
    186 H91        -3.8060   -1.9260   -5.2820 ho        1 MOL      0.457078
    187 O26        -1.5030   -3.4080   -2.9020 oh        1 MOL     -0.921770
    188 H92        -0.8560   -4.0250   -2.5610 ho        1 MOL      0.457078
    189 H93        -2.0530   -3.1930   -2.1520 ho        1 MOL      0.457078
    190 O27        -0.1030    1.6760   -2.8120 oh        1 MOL     -0.921770
    191 H94        -0.3650    2.5250   -3.1780 ho        1 MOL      0.457078
    192 H95         0.4130    1.8950   -2.0430 ho        1 MOL      0.457078
@<TRIPOS>BOND
     1    1    2 1   
     2    1    4 1   
     3    1    5 1   
     4    1    6 1   
     5    2    3 2   
     6    2    7 1   
     7    7    8 1   
     8    7   15 1   
     9    8    9 1   
    10    8   11 1   
    11    8   16 1   
    12    9   10 2   
    13    9   19 1   
    14   11   12 1   
    15   11   17 1   
    16   11   18 1   
    17   12   13 1   
    18   12   14 1   
    19   19   20 1   
    20   19   28 1   
    21   20   21 1   
    22   20   23 1   
    23   20   29 1   
    24   21   22 2   
    25   21   41 1   
    26   23   24 1   
    27   23   30 1   
    28   23   31 1   
    29   24   25 1   
    30   24   32 1   
    31   24   33 1   
    32   25   26 1   
    33   25   34 1   
    34   25   35 1   
    35   26   27 1   
    36   26   36 1   
    37   26   37 1   
    38   27   38 1   
    39   27   39 1   
    40   27   40 1   
    41   41   42 1   
    42   41   49 1   
    43   42   43 1   
    44   42   45 1   
    45   42   50 1   
    46   43   44 2   
    47   43   53 1   
    48   45   46 1   
    49   45   51 1   
    50   45   52 1   
    51   46   47 1   
    52   46   48 1   
    53   53   54 1   
    54   53   57 1   
    55   54   55 1   
    56   54   58 1   
    57   54   59 1   
    58   55   56 2   
    59   55   60 1   
    60   60   61 1   
    61   60   68 1   
    62   61   62 1   
    63   61   64 1   
    64   61   69 1   
    65   62   63 2   
    66   62   72 1   
    67   64   65 1   
    68   64   70 1   
    69   64   71 1   
    70   65   66 1   
    71   65   67 1   
    72   72   73 1   
    73   72   76 1   
    74   73   74 1   
    75   73   77 1   
    76   73   78 1   
    77   74   75 2   
    78   74   79 1   
    79   79   80 1   
    80   79   86 1   
    81   80   81 1   
    82   80   83 1   
    83   80   87 1   
    84   81   82 2   
    85   81   93 1   
    86   83   84 1   
    87   83   85 1   
    88   83   88 1   
    89   84   90 1   
    90   84   91 1   
    91   84   92 1   
    92   85   89 1   
    93   93   94 1   
    94   93  101 1   
    95   94   95 1   
    96   94   97 1   
    97   94  102 1   
    98   95   96 2   
    99   95  112 1   
   100   97   98 1   
   101   97   99 1   
   102   97  103 1   
   103   98  100 1   
   104   98  104 1   
   105   98  105 1   
   106   99  106 1   
   107   99  107 1   
   108   99  108 1   
   109  100  109 1   
   110  100  110 1   
   111  100  111 1   
   112  112  113 1   
   113  112  119 1   
   114  113  114 1   
   115  113  116 1   
   116  113  120 1   
   117  114  115 2   
   118  114  126 1   
   119  116  117 1   
   120  116  118 1   
   121  116  121 1   
   122  117  123 1   
   123  117  124 1   
   124  117  125 1   
   125  118  122 1   
   126  126  127 1   
   127  126  133 1   
   128  127  128 1   
   129  127  130 1   
   130  127  134 1   
   131  128  129 2   
   132  128  140 1   
   133  130  131 1   
   134  130  132 1   
   135  130  135 1   
   136  131  137 1   
   137  131  138 1   
   138  131  139 1   
   139  132  136 1   
   140  140  141 1   
   141  140  149 1   
   142  141  142 1   
   143  141  144 1   
   144  141  150 1   
   145  142  143 2   
   146  142  162 1   
   147  144  145 1   
   148  144  151 1   
   149  144  152 1   
   150  145  146 1   
   151  145  153 1   
   152  145  154 1   
   153  146  147 1   
   154  146  155 1   
   155  146  156 1   
   156  147  148 1   
   157  147  157 1   
   158  147  158 1   
   159  148  159 1   
   160  148  160 1   
   161  148  161 1   
   162  162  163 1   
   163  162  171 1   
   164  163  164 1   
   165  163  166 1   
   166  163  172 1   
   167  164  165 2   
   168  164  177 1   
   169  166  167 1   
   170  166  173 1   
   171  166  174 1   
   172  167  168 1   
   173  167  175 1   
   174  167  176 1   
   175  168  169 1   
   176  168  170 1   
   177  177  178 1   
   178  177  182 1   
   179  178  179 1   
   180  178  180 1   
   181  178  181 1   
   182  184  185 1   
   183  184  186 1   
   184  187  188 1   
   185  187  189 1   
   186  190  191 1   
   187  190  192 1   
@<TRIPOS>SUBSTRUCTURE
     1 MOL         1 TEMP              0 ****  ****    0 ROOT
