@<TRIPOS>MOLECULE
MOL
  179   176     1     0     0
SMALL
resp


@<TRIPOS>ATOM
      1 C1         -1.3470    6.5620    4.5130 c3        1 MOL     -0.340138
      2 C2         -1.2130    5.7170    3.2550 c         1 MOL      0.731011
      3 O1         -0.3060    5.9260    2.4240 o         1 MOL     -0.602276
      4 H1         -0.4030    7.0700    4.7120 hc        1 MOL      0.094826
      5 H2         -2.1350    7.3020    4.3720 hc        1 MOL      0.094826
      6 H3         -1.5980    5.9200    5.3570 hc        1 MOL      0.094826
      7 N1         -2.0850    4.6990    3.1090 n         1 MOL     -0.612666
      8 C3         -2.1230    3.8010    2.0000 c3        1 MOL      0.000648
      9 C4         -2.6690    4.5850    0.7610 c         1 MOL      0.601574
     10 O2         -3.7220    5.2870    0.8710 o         1 MOL     -0.524691
     11 C5         -2.9270    2.5560    2.4210 c3        1 MOL     -0.054687
     12 C6         -3.1670    1.5870    1.2890 c         1 MOL      0.779770
     13 O3         -3.6880    0.4830    1.5340 o         1 MOL     -0.795462
     14 O4         -2.7120    1.7430    0.1540 o         1 MOL     -0.795462
     15 H4         -2.8250    4.5480    3.7780 hn        1 MOL      0.322299
     16 H5         -1.1830    3.2810    1.7760 h1        1 MOL      0.077415
     17 H6         -3.8260    2.8390    2.9570 hc        1 MOL      0.025568
     18 H7         -2.3400    1.9710    3.1300 hc        1 MOL      0.025568
     19 N2         -1.8990    4.5110   -0.3260 n         1 MOL     -0.324564
     20 C7         -2.2500    5.1810   -1.5510 c3        1 MOL      0.017847
     21 C8         -3.6430    4.8200   -2.0610 c         1 MOL      0.401408
     22 O5         -4.3290    5.6990   -2.5830 o         1 MOL     -0.516103
     23 C9         -1.1000    4.9520   -2.5550 c3        1 MOL     -0.109803
     24 C10        -1.1110    3.4780   -3.0370 c3        1 MOL     -0.023932
     25 C11         0.0140    3.1680   -4.0150 c3        1 MOL     -0.171294
     26 C12         0.1780    1.7190   -4.4020 c3        1 MOL      0.140217
     27 N3          1.5290    1.4970   -4.9770 n4        1 MOL     -0.303127
     28 H8         -1.0660    3.9350   -0.3020 hn        1 MOL      0.190377
     29 H9         -2.2910    6.2400   -1.3290 h1        1 MOL      0.102942
     30 H10        -0.1440    5.1980   -2.0980 hc        1 MOL      0.062665
     31 H11        -1.1980    5.6590   -3.3750 hc        1 MOL      0.062665
     32 H12        -2.0000    3.2890   -3.6320 hc        1 MOL      0.116467
     33 H13        -1.0880    2.8500   -2.1470 hc        1 MOL      0.116467
     34 H14         0.9380    3.5500   -3.5950 hc        1 MOL      0.050006
     35 H15        -0.1630    3.6960   -4.9540 hc        1 MOL      0.050006
     36 H16        -0.6090    1.4430   -5.1010 hx        1 MOL      0.064098
     37 H17         0.1200    1.0140   -3.5790 hx        1 MOL      0.064098
     38 H18         2.2510    1.9670   -4.4540 hn        1 MOL      0.274307
     39 H19         1.8570    0.5500   -5.0580 hn        1 MOL      0.274307
     40 H20         1.5680    1.8780   -5.9150 hn        1 MOL      0.274307
     41 N4         -4.0550    3.5450   -1.9590 n         1 MOL     -0.129315
     42 C13        -5.1990    2.9190   -2.6550 c3        1 MOL      0.063319
     43 C14        -6.3450    2.4830   -1.7490 c         1 MOL      0.375437
     44 O6         -7.4400    2.1470   -2.2170 o         1 MOL     -0.525098
     45 C15        -4.5750    1.7530   -3.4220 c3        1 MOL     -0.323865
     46 C16        -3.8090    0.7550   -2.5840 c         1 MOL      0.845364
     47 O7         -4.3830    0.1410   -1.6250 o         1 MOL     -0.763165
     48 O8         -2.6460    0.5050   -2.8620 o         1 MOL     -0.763165
     49 H21        -3.4130    2.8920   -1.5210 hn        1 MOL     -0.051337
     50 H22        -5.5510    3.5780   -3.4390 h1        1 MOL      0.108039
     51 H23        -4.0150    2.1410   -4.2690 hc        1 MOL      0.094795
     52 H24        -5.4060    1.2120   -3.8580 hc        1 MOL      0.094795
     53 N5         -6.1100    2.4190   -0.4560 n         1 MOL     -0.106730
     54 C17        -7.0530    2.0930    0.5590 c3        1 MOL     -0.076872
     55 C18        -7.3220    0.5900    0.7700 c         1 MOL      0.525955
     56 O9         -8.1960    0.1820    1.4850 o         1 MOL     -0.555615
     57 H25        -5.1560    2.6520   -0.2070 hn        1 MOL      0.127711
     58 H26        -8.0220    2.5730    0.4230 h1        1 MOL      0.079469
     59 H27        -6.7310    2.5270    1.5060 h1        1 MOL      0.079469
     60 N6         -6.6100   -0.2580    0.0150 n         1 MOL     -0.227038
     61 C19        -6.8870   -1.7010   -0.0130 c3        1 MOL      0.067134
     62 C20        -5.6300   -2.6830    0.0620 c         1 MOL      0.456157
     63 O10        -4.4470   -2.3370   -0.1510 o         1 MOL     -0.501276
     64 C21        -7.8660   -2.0780   -1.1350 c3        1 MOL     -0.270764
     65 C22        -7.3280   -2.2530   -2.5110 c         1 MOL      0.597273
     66 N7         -6.1640   -1.7070   -2.8550 n         1 MOL     -0.676181
     67 O11        -7.9590   -2.8510   -3.3930 o         1 MOL     -0.583534
     68 H28        -5.8780    0.0130   -0.6180 hn        1 MOL      0.232243
     69 H29        -7.3840   -1.9890    0.9100 h1        1 MOL      0.043858
     70 H30        -8.7200   -1.4140   -1.1860 hc        1 MOL      0.100422
     71 H31        -8.2740   -3.0550   -0.8790 hc        1 MOL      0.100422
     72 H32        -5.5900   -1.2100   -2.1830 hn        1 MOL      0.326518
     73 H33        -5.9790   -1.7750   -3.8480 hn        1 MOL      0.326518
     74 N8         -5.9310   -3.8800    0.5050 n         1 MOL     -0.345000
     75 C23        -4.9400   -4.9530    0.4600 c3        1 MOL     -0.234499
     76 C24        -3.7690   -4.8280    1.4700 c         1 MOL      0.593431
     77 O12        -3.9160   -4.3250    2.5810 o         1 MOL     -0.497418
     78 H34        -6.8490   -4.1100    0.8570 hn        1 MOL      0.337710
     79 H35        -4.5260   -5.0400   -0.5460 h1        1 MOL      0.119423
     80 H36        -5.5560   -5.8340    0.6610 h1        1 MOL      0.119423
     81 N9         -2.6000   -5.3360    1.0790 n         1 MOL     -0.456720
     82 C25        -1.3490   -4.9830    1.8540 c3        1 MOL     -0.016395
     83 C26        -1.0470   -3.4200    1.9430 c         1 MOL      0.518185
     84 O13        -1.3870   -2.6700    1.0100 o         1 MOL     -0.518171
     85 C27        -0.1750   -5.6900    1.1400 c3        1 MOL     -0.243336
     86 C28         0.2940   -5.3050   -0.2290 ca        1 MOL      0.110789
     87 C29        -0.3100   -5.9070   -1.3400 ca        1 MOL     -0.163075
     88 C30         1.4340   -4.4500   -0.4350 ca        1 MOL     -0.163075
     89 C31         0.0410   -5.5670   -2.6340 ca        1 MOL     -0.238404
     90 C32         1.8660   -4.1260   -1.7080 ca        1 MOL     -0.238404
     91 C33         1.1720   -4.7010   -2.7730 ca        1 MOL      0.378399
     92 O14         1.5440   -4.3140   -4.0290 oh        1 MOL     -0.606616
     93 H37        -2.5100   -5.7480    0.1670 hn        1 MOL      0.262599
     94 H38        -1.5880   -5.4840    2.8010 h1        1 MOL      0.125648
     95 H39        -0.3870   -6.7580    1.0640 hc        1 MOL      0.093035
     96 H40         0.6960   -5.5860    1.7980 hc        1 MOL      0.093035
     97 H41        -1.1120   -6.6300   -1.2330 ha        1 MOL      0.141159
     98 H42         1.8990   -4.0400    0.4510 ha        1 MOL      0.141159
     99 H43        -0.5830   -5.7500   -3.4970 ha        1 MOL      0.161897
    100 H44         2.7790   -3.5980   -1.9580 ha        1 MOL      0.161897
    101 H45         2.3720   -3.8570   -4.1950 ho        1 MOL      0.446031
    102 N10        -0.4840   -3.0460    3.1540 n         1 MOL     -0.519072
    103 C34        -0.3680   -1.6860    3.6790 c3        1 MOL      0.098701
    104 C35         0.1350   -0.6180    2.6080 c         1 MOL      0.508531
    105 O15        -0.6480   -0.1470    1.8260 o         1 MOL     -0.461596
    106 C36        -1.5260   -1.1980    4.6080 c3        1 MOL      0.333398
    107 C37        -0.9960   -0.1730    5.5740 c3        1 MOL     -0.258104
    108 C38        -2.1830   -2.4000    5.3480 c3        1 MOL     -0.168593
    109 C39        -2.1710    0.4370    6.3630 c3        1 MOL     -0.148870
    110 H46        -0.3230   -3.8210    3.7800 hn        1 MOL      0.330037
    111 H47         0.5110   -1.7570    4.3150 h1        1 MOL     -0.025513
    112 H48        -2.2160   -0.8060    3.8610 hc        1 MOL     -0.008265
    113 H49        -0.3590    0.5860    5.1160 hc        1 MOL      0.055934
    114 H50        -0.2840   -0.6240    6.2660 hc        1 MOL      0.055934
    115 H51        -2.5410   -3.2220    4.7260 hc        1 MOL      0.037189
    116 H52        -1.3840   -2.8680    5.9260 hc        1 MOL      0.037189
    117 H53        -2.9940   -2.0590    5.9920 hc        1 MOL      0.037189
    118 H54        -3.0770    0.5040    5.7620 hc        1 MOL      0.063955
    119 H55        -2.4970   -0.1910    7.1960 hc        1 MOL      0.063955
    120 H56        -1.8930    1.3590    6.8680 hc        1 MOL      0.063955
    121 N11         1.4420   -0.4110    2.5260 n         1 MOL     -0.503899
    122 C40         2.0540    0.7410    1.8980 c3        1 MOL     -0.092378
    123 C41         3.2960    0.4440    1.0230 c         1 MOL      0.578715
    124 O16         3.9700    1.3460    0.4710 o         1 MOL     -0.541762
    125 C42         2.3670    1.8570    2.9520 c3        1 MOL      0.180588
    126 O17         3.2130    1.3210    3.9530 oh        1 MOL     -0.546720
    127 H57         1.9940   -0.8800    3.2340 hn        1 MOL      0.312247
    128 H58         1.3240    1.1760    1.2260 h1        1 MOL      0.081868
    129 H59         1.4140    2.1210    3.4180 h1        1 MOL      0.074268
    130 H60         2.8410    2.7300    2.5050 h1        1 MOL      0.074268
    131 H61         2.8240    0.6780    4.5400 ho        1 MOL      0.354014
    132 N12         3.7040   -0.8440    0.9060 n         1 MOL     -0.431917
    133 C43         4.9190   -1.2390    0.0450 c3        1 MOL      0.087292
    134 C44         4.6430   -0.9010   -1.4010 c         1 MOL      0.658196
    135 O18         3.5780   -1.2840   -1.8250 o         1 MOL     -0.635398
    136 C45         5.1720   -2.7970    0.1450 c3        1 MOL     -0.312533
    137 H62         3.1820   -1.5520    1.3890 hn        1 MOL      0.247073
    138 H63         5.8370   -0.7560    0.3770 h1        1 MOL      0.077705
    139 H64         4.3290   -3.4290   -0.1420 hc        1 MOL      0.103623
    140 H65         6.0410   -2.9230   -0.4900 hc        1 MOL      0.103623
    141 H66         5.5010   -3.0270    1.1560 hc        1 MOL      0.103623
    142 N13         5.5510   -0.2740   -2.2250 n         1 MOL     -0.599233
    143 C46         6.7420    0.4480   -1.8740 c3        1 MOL      0.108556
    144 C47         8.0280   -0.4590   -1.7390 c         1 MOL      0.648256
    145 O19         8.0430   -1.5380   -2.3830 o         1 MOL     -0.570508
    146 C48         6.8740    1.5610   -2.9200 c3        1 MOL     -0.183440
    147 H67         5.4560   -0.3920   -3.2210 hn        1 MOL      0.332293
    148 H68         6.6540    0.8900   -0.8790 h1        1 MOL      0.106734
    149 H69         7.2280    1.2120   -3.8920 hc        1 MOL      0.058520
    150 H70         5.8840    1.9280   -3.1740 hc        1 MOL      0.058520
    151 H71         7.5550    2.3180   -2.5280 hc        1 MOL      0.058520
    152 N14         9.0680   -0.1540   -0.8760 n         1 MOL     -0.557380
    153 C49         9.1230    1.0310    0.0240 c3        1 MOL     -0.273062
    154 C50         9.5800    0.7180    1.4540 c         1 MOL      0.482175
    155 O20         9.5100    1.5800    2.3500 o         1 MOL     -0.511390
    156 C51        10.0590    2.0900   -0.5650 c3        1 MOL      0.155052
    157 C52        11.5510    1.8100   -0.4140 c3        1 MOL     -0.185340
    158 C53        11.9780    0.5970   -1.2720 c         1 MOL      0.736834
    159 O21        11.9940   -0.5570   -0.8560 o         1 MOL     -0.670169
    160 O22        12.5120    0.8940   -2.3750 o         1 MOL     -0.670169
    161 H72         9.8920   -0.7320   -0.8320 hn        1 MOL      0.318323
    162 H73         8.1810    1.5770    0.1010 h1        1 MOL      0.133305
    163 H74         9.8510    3.0060   -0.0110 hc        1 MOL     -0.000378
    164 H75         9.9090    2.3670   -1.6160 hc        1 MOL     -0.000378
    165 H76        11.8860    1.6030    0.6030 hc        1 MOL      0.038570
    166 H77        12.0700    2.7370   -0.6590 hc        1 MOL      0.038570
    167 N15        10.2020   -0.4630    1.7850 n         1 MOL     -0.225077
    168 C54        10.5900   -0.9680    3.1040 c3        1 MOL     -0.239790
    169 H78        11.4270   -0.3820    3.4850 h1        1 MOL      0.108274
    170 H79         9.7460   -0.8820    3.7890 h1        1 MOL      0.108274
    171 H80        10.8870   -2.0130    3.0210 h1        1 MOL      0.108274
    172 H81        10.3240   -1.0950    1.0060 hn        1 MOL      0.238572
    173 Ca1        -2.2310   -0.7150   -0.4680 Ca        1 MOL      1.766012
    174 O23        -1.8500   -2.8350   -2.0970 oh        1 MOL     -0.925814
    175 H82        -1.1570   -3.4650   -1.9480 ho        1 MOL      0.438976
    176 H83        -2.2180   -3.0740   -2.9490 ho        1 MOL      0.438976
    177 O24         0.2180   -0.1940   -1.1490 oh        1 MOL     -0.925814
    178 H84         0.7760    0.4770   -1.5560 ho        1 MOL      0.438976
    179 H85         0.8330   -0.8600   -0.8420 ho        1 MOL      0.438976
@<TRIPOS>BOND
     1    1    2 1   
     2    1    4 1   
     3    1    5 1   
     4    1    6 1   
     5    2    3 2   
     6    2    7 1   
     7    7    8 1   
     8    7   15 1   
     9    8    9 1   
    10    8   11 1   
    11    8   16 1   
    12    9   10 2   
    13    9   19 1   
    14   11   12 1   
    15   11   17 1   
    16   11   18 1   
    17   12   13 1   
    18   12   14 1   
    19   19   20 1   
    20   19   28 1   
    21   20   21 1   
    22   20   23 1   
    23   20   29 1   
    24   21   22 2   
    25   21   41 1   
    26   23   24 1   
    27   23   30 1   
    28   23   31 1   
    29   24   25 1   
    30   24   32 1   
    31   24   33 1   
    32   25   26 1   
    33   25   34 1   
    34   25   35 1   
    35   26   27 1   
    36   26   36 1   
    37   26   37 1   
    38   27   38 1   
    39   27   39 1   
    40   27   40 1   
    41   41   42 1   
    42   41   49 1   
    43   42   43 1   
    44   42   45 1   
    45   42   50 1   
    46   43   44 2   
    47   43   53 1   
    48   45   46 1   
    49   45   51 1   
    50   45   52 1   
    51   46   47 1   
    52   46   48 1   
    53   53   54 1   
    54   53   57 1   
    55   54   55 1   
    56   54   58 1   
    57   54   59 1   
    58   55   56 2   
    59   55   60 1   
    60   60   61 1   
    61   60   68 1   
    62   61   62 1   
    63   61   64 1   
    64   61   69 1   
    65   62   63 2   
    66   62   74 1   
    67   64   65 1   
    68   64   70 1   
    69   64   71 1   
    70   65   66 1   
    71   65   67 2   
    72   66   72 1   
    73   66   73 1   
    74   74   75 1   
    75   74   78 1   
    76   75   76 1   
    77   75   79 1   
    78   75   80 1   
    79   76   77 2   
    80   76   81 1   
    81   81   82 1   
    82   81   93 1   
    83   82   83 1   
    84   82   85 1   
    85   82   94 1   
    86   83   84 2   
    87   83  102 1   
    88   85   86 1   
    89   85   95 1   
    90   85   96 1   
    91   86   87 ar  
    92   86   88 ar  
    93   87   89 ar  
    94   87   97 1   
    95   88   90 ar  
    96   88   98 1   
    97   89   91 ar  
    98   89   99 1   
    99   90   91 ar  
   100   90  100 1   
   101   91   92 1   
   102   92  101 1   
   103  102  103 1   
   104  102  110 1   
   105  103  104 1   
   106  103  106 1   
   107  103  111 1   
   108  104  105 2   
   109  104  121 1   
   110  106  107 1   
   111  106  108 1   
   112  106  112 1   
   113  107  109 1   
   114  107  113 1   
   115  107  114 1   
   116  108  115 1   
   117  108  116 1   
   118  108  117 1   
   119  109  118 1   
   120  109  119 1   
   121  109  120 1   
   122  121  122 1   
   123  121  127 1   
   124  122  123 1   
   125  122  125 1   
   126  122  128 1   
   127  123  124 2   
   128  123  132 1   
   129  125  126 1   
   130  125  129 1   
   131  125  130 1   
   132  126  131 1   
   133  132  133 1   
   134  132  137 1   
   135  133  134 1   
   136  133  136 1   
   137  133  138 1   
   138  134  135 2   
   139  134  142 1   
   140  136  139 1   
   141  136  140 1   
   142  136  141 1   
   143  142  143 1   
   144  142  147 1   
   145  143  144 1   
   146  143  146 1   
   147  143  148 1   
   148  144  145 2   
   149  144  152 1   
   150  146  149 1   
   151  146  150 1   
   152  146  151 1   
   153  152  153 1   
   154  152  161 1   
   155  153  154 1   
   156  153  156 1   
   157  153  162 1   
   158  154  155 2   
   159  154  167 1   
   160  156  157 1   
   161  156  163 1   
   162  156  164 1   
   163  157  158 1   
   164  157  165 1   
   165  157  166 1   
   166  158  159 1   
   167  158  160 1   
   168  167  168 1   
   169  167  172 1   
   170  168  169 1   
   171  168  170 1   
   172  168  171 1   
   173  174  175 1   
   174  174  176 1   
   175  177  178 1   
   176  177  179 1   
@<TRIPOS>SUBSTRUCTURE
     1 MOL         1 TEMP              0 ****  ****    0 ROOT
