@<TRIPOS>MOLECULE
MOL
  195   189     1     0     0
SMALL
resp


@<TRIPOS>ATOM
      1 C1         -7.1970   -3.5250    3.7780 c3        1 MOL     -0.266191
      2 C2         -6.2750   -2.8690    2.7690 c         1 MOL      0.836720
      3 O1         -5.7990   -3.5630    1.8830 o         1 MOL     -0.605702
      4 H1         -7.9030   -2.7860    4.1570 hc        1 MOL      0.064754
      5 H2         -7.7420   -4.3370    3.2980 hc        1 MOL      0.064754
      6 H3         -6.6080   -3.9210    4.6050 hc        1 MOL      0.064754
      7 N1         -6.2680   -1.5220    2.7380 n         1 MOL     -0.677582
      8 C3         -5.9050   -0.5380    1.7150 c3        1 MOL      0.690639
      9 C4         -4.4010   -0.3900    1.5480 c         1 MOL     -0.311530
     10 O2         -3.8460    0.4430    0.7970 o         1 MOL      0.068826
     11 C5         -6.4930    0.8880    1.9060 c3        1 MOL     -0.180674
     12 C6         -7.9510    1.0500    2.2920 c         1 MOL      0.654070
     13 O3         -8.5870    0.2110    2.9210 o         1 MOL     -0.671817
     14 O4         -8.4960    2.1370    1.9200 o         1 MOL     -0.671817
     15 H4         -6.8550   -1.1570    3.4800 hn        1 MOL      0.267723
     16 H5         -6.2590   -0.9240    0.7570 h1        1 MOL     -0.039635
     17 H6         -6.3150    1.5340    1.0500 hc        1 MOL     -0.011350
     18 H7         -5.9190    1.4420    2.6490 hc        1 MOL     -0.011350
     19 N2         -3.5750   -1.1910    2.2250 n         1 MOL     -0.146809
     20 C7         -2.1150   -0.9580    2.4870 c3        1 MOL      0.108975
     21 C8         -1.3670   -2.2280    2.1410 c         1 MOL      0.533555
     22 O5         -1.7800   -3.2590    2.6140 o         1 MOL     -0.511707
     23 C9         -1.9260   -0.4880    3.9500 c3        1 MOL     -0.470612
     24 C10        -2.6720    0.8930    4.1660 c3        1 MOL      0.229579
     25 C11        -2.3060    1.6890    5.4280 c3        1 MOL     -0.059809
     26 C12        -0.7960    2.1380    5.4300 c3        1 MOL      0.175291
     27 N3         -0.5510    3.2380    6.3580 n4        1 MOL     -0.624073
     28 H8         -3.9670   -2.0280    2.6360 hn        1 MOL      0.159624
     29 H9         -1.7610   -0.2100    1.7820 h1        1 MOL      0.111217
     30 H10        -0.8570   -0.3380    4.0020 hc        1 MOL      0.140801
     31 H11        -2.2790   -1.1800    4.7190 hc        1 MOL      0.140801
     32 H12        -3.7520    0.7410    4.2020 hc        1 MOL     -0.016581
     33 H13        -2.5580    1.4810    3.2570 hc        1 MOL     -0.016581
     34 H14        -2.5900    1.1250    6.3210 hc        1 MOL      0.021725
     35 H15        -2.9860    2.5440    5.5220 hc        1 MOL      0.021725
     36 H16        -0.5450    2.4730    4.4220 hx        1 MOL      0.054970
     37 H17        -0.2430    1.2660    5.7850 hx        1 MOL      0.054970
     38 H18        -1.4230    3.7260    6.5060 hn        1 MOL      0.396306
     39 H19        -0.0700    2.8030    7.1290 hn        1 MOL      0.396306
     40 H20         0.1760    3.8630    6.0380 hn        1 MOL      0.396306
     41 N4         -0.2250   -2.2320    1.4100 n         1 MOL     -0.337437
     42 C13         0.5710   -1.1110    0.8900 c3        1 MOL     -0.020261
     43 C14         1.0160   -0.0610    1.8650 c         1 MOL      0.426214
     44 O6          0.4310    1.0240    1.9720 o         1 MOL     -0.560733
     45 C15        -0.0170   -0.6060   -0.4090 c3        1 MOL     -0.318986
     46 C16        -0.0480   -1.6200   -1.6000 c         1 MOL      0.569882
     47 O7          0.3460   -2.8110   -1.5620 o         1 MOL     -0.666851
     48 O8         -0.2770   -1.1100   -2.7270 o         1 MOL     -0.666851
     49 H21         0.1310   -3.1340    1.1230 hn        1 MOL      0.152622
     50 H22         1.5480   -1.5600    0.6960 h1        1 MOL     -0.079513
     51 H23         0.6830    0.1730   -0.7180 hc        1 MOL      0.193720
     52 H24        -0.9920   -0.1690   -0.1800 hc        1 MOL      0.193720
     53 N5          2.1040   -0.2750    2.6260 n         1 MOL     -0.154934
     54 C17         2.9970   -1.4470    2.6280 c3        1 MOL     -0.428818
     55 C18         4.0450   -1.5230    3.7160 c         1 MOL      0.666513
     56 O9          4.0230   -0.7970    4.7600 o         1 MOL     -0.545645
     57 H25         2.2530    0.4470    3.3060 hn        1 MOL      0.211979
     58 H26         3.5560   -1.2620    1.7090 h1        1 MOL      0.232667
     59 H27         2.4180   -2.3610    2.4610 h1        1 MOL      0.232667
     60 N6          5.1960   -2.2740    3.6180 n         1 MOL     -0.597652
     61 C19         5.5430   -3.1640    2.5240 c3        1 MOL      0.313618
     62 C20         6.4060   -2.4960    1.4670 c         1 MOL      0.350113
     63 O10         6.9700   -1.4350    1.7580 o         1 MOL     -0.415904
     64 C21         6.2140   -4.4030    3.0990 c3        1 MOL     -0.215962
     65 C22         7.4980   -4.1580    3.9120 c         1 MOL      0.709203
     66 O11         7.4500   -3.7380    5.1330 o         1 MOL     -0.650219
     67 O12         8.5960   -4.5280    3.4040 o         1 MOL     -0.650219
     68 H28         5.8900   -2.1370    4.3310 hn        1 MOL      0.332297
     69 H29         4.6230   -3.5170    2.0560 h1        1 MOL     -0.086927
     70 H30         6.3580   -5.1950    2.3660 hc        1 MOL      0.031839
     71 H31         5.4180   -4.9040    3.6650 hc        1 MOL      0.031839
     72 N7          6.5820   -3.0310    0.2550 n         1 MOL     -0.317538
     73 C23         7.4600   -2.5070   -0.8250 c3        1 MOL     -0.103063
     74 C24         6.9100   -1.3350   -1.6770 c         1 MOL      0.436559
     75 O13         7.0620   -1.3670   -2.8890 o         1 MOL     -0.534356
     76 H32         6.0950   -3.9010    0.0720 hn        1 MOL      0.155583
     77 H33         7.6930   -3.3540   -1.4790 h1        1 MOL      0.126560
     78 H34         8.4490   -2.1810   -0.4890 h1        1 MOL      0.126560
     79 N8          6.0730   -0.4410   -1.1060 n         1 MOL     -0.262215
     80 C25         5.4420    0.8300   -1.5950 c3        1 MOL      0.147100
     81 C26         5.4110    1.9550   -0.5880 c         1 MOL      0.427301
     82 O14         5.4350    1.7500    0.5830 o         1 MOL     -0.457137
     83 C27         3.9940    0.5780   -2.1380 c3        1 MOL      0.021949
     84 C28         3.8380   -0.3960   -3.3100 c3        1 MOL     -0.096877
     85 O15         3.4770    1.7910   -2.6510 oh        1 MOL     -0.555197
     86 H35         5.8380   -0.6520   -0.1520 hn        1 MOL      0.071600
     87 H36         5.9290    1.2400   -2.4840 h1        1 MOL      0.086583
     88 H37         3.4000    0.2050   -1.2970 h1        1 MOL      0.129376
     89 H38         2.5910    1.5150   -2.9110 ho        1 MOL      0.416374
     90 H39         4.3120    0.0120   -4.2030 hc        1 MOL      0.040868
     91 H40         4.3750   -1.3310   -3.1520 hc        1 MOL      0.040868
     92 H41         2.7910   -0.4950   -3.6090 hc        1 MOL      0.040868
     93 N9          5.3730    3.1970   -1.0490 n         1 MOL     -0.290515
     94 C29         5.4480    4.4910   -0.2170 c3        1 MOL     -0.166765
     95 C30         4.1480    5.1380    0.2130 c         1 MOL      0.487667
     96 O16         4.1470    6.1230    0.9800 o         1 MOL     -0.525608
     97 C31         6.2370    5.4910   -1.0070 c3        1 MOL      0.086280
     98 C32         5.6150    5.7910   -2.3850 c3        1 MOL      0.291128
     99 C33         7.6840    5.0250   -1.2100 c3        1 MOL     -0.010153
    100 C34         6.1010    7.0740   -3.1070 c3        1 MOL     -0.266766
    101 H42         5.2370    3.3670   -2.0380 hn        1 MOL      0.229470
    102 H43         5.9440    4.2060    0.7160 h1        1 MOL      0.138523
    103 H44         6.3290    6.4230   -0.4470 hc        1 MOL      0.034242
    104 H45         4.5310    5.8530   -2.2930 hc        1 MOL     -0.086125
    105 H46         5.8450    4.9610   -3.0530 hc        1 MOL     -0.086125
    106 H47         8.1750    4.9660   -0.2420 hc        1 MOL     -0.007491
    107 H48         7.8280    4.0870   -1.7500 hc        1 MOL     -0.007491
    108 H49         8.2350    5.8320   -1.7110 hc        1 MOL     -0.007491
    109 H50         5.8800    7.9940   -2.5630 hc        1 MOL      0.054872
    110 H51         7.1760    7.0190   -3.2980 hc        1 MOL      0.054872
    111 H52         5.6630    7.0350   -4.1120 hc        1 MOL      0.054872
    112 N10         3.0690    4.5790   -0.3650 n         1 MOL     -0.274137
    113 C35         1.7230    5.0980   -0.4130 c3        1 MOL      0.043562
    114 C36         0.7080    3.9480   -0.3240 c         1 MOL      0.527896
    115 O17         0.9390    2.7780   -0.5970 o         1 MOL     -0.494521
    116 C37         1.4510    5.8660   -1.6500 c3        1 MOL      0.326399
    117 C38         1.4400    5.0520   -2.9600 c3        1 MOL     -0.335591
    118 O18         2.3660    6.9020   -1.8080 oh        1 MOL     -0.596826
    119 H53         3.2290    3.9460   -1.1370 hn        1 MOL      0.128318
    120 H54         1.5720    5.7780    0.4220 h1        1 MOL      0.074102
    121 H55         0.4850    6.3630   -1.6150 h1        1 MOL     -0.006948
    122 H56         2.2690    7.1610   -2.7250 ho        1 MOL      0.390866
    123 H57         1.1360    5.7430   -3.7400 hc        1 MOL      0.096144
    124 H58         2.4330    4.6930   -3.2360 hc        1 MOL      0.096144
    125 H59         0.7600    4.2030   -2.9830 hc        1 MOL      0.096144
    126 N11        -0.5230    4.3530    0.0460 n         1 MOL     -0.634002
    127 C39        -1.6350    3.3960    0.1630 c3        1 MOL      0.316212
    128 C40        -2.1700    2.9910   -1.1880 c         1 MOL      0.428174
    129 O19        -1.7290    3.6220   -2.1500 o         1 MOL     -0.561119
    130 C41        -2.7240    3.7330    1.2850 c3        1 MOL      0.234398
    131 C42        -3.4630    4.9290    0.8000 c3        1 MOL     -0.621971
    132 O20        -2.3320    3.9910    2.6100 oh        1 MOL     -0.596770
    133 H60        -0.7200    5.3360    0.1780 hn        1 MOL      0.302542
    134 H61        -1.1580    2.4990    0.5670 h1        1 MOL      0.147010
    135 H62        -3.4030    2.8720    1.2840 h1        1 MOL      0.129193
    136 H63        -3.1140    4.1010    3.1700 ho        1 MOL      0.391307
    137 H64        -3.7260    4.8200   -0.2460 hc        1 MOL      0.160348
    138 H65        -4.3300    5.0890    1.4300 hc        1 MOL      0.160348
    139 H66        -2.7990    5.7950    0.8180 hc        1 MOL      0.160348
    140 N12        -2.9040    1.9170   -1.3520 n         1 MOL      0.056773
    141 C43        -3.5530    1.6160   -2.6720 c3        1 MOL     -0.144560
    142 C44        -3.8320    0.1700   -2.9550 c         1 MOL      0.717613
    143 O21        -4.0530   -0.2240   -4.1200 o         1 MOL     -0.631616
    144 C45        -4.7390    2.5520   -2.8630 c3        1 MOL     -0.171827
    145 C46        -5.8670    2.3800   -1.8320 c3        1 MOL      0.033583
    146 C47        -6.8290    3.5220   -1.8450 c3        1 MOL      0.049986
    147 C48        -8.0920    3.4440   -0.9800 c3        1 MOL      0.120723
    148 N13        -9.0550    4.5820   -1.2650 n4        1 MOL     -0.322393
    149 H67        -3.2370    1.5280   -0.4730 hn        1 MOL     -0.586656
    150 H68        -2.9600    1.8780   -3.5400 h1        1 MOL      0.133567
    151 H69        -5.1670    2.4720   -3.8620 hc        1 MOL      0.082934
    152 H70        -4.3460    3.5520   -2.7240 hc        1 MOL      0.082934
    153 H71        -5.4470    2.4410   -0.8250 hc        1 MOL      0.035465
    154 H72        -6.3340    1.4140   -2.0030 hc        1 MOL      0.035465
    155 H73        -7.1450    3.6280   -2.8840 hc        1 MOL     -0.030232
    156 H74        -6.3310    4.4800   -1.6940 hc        1 MOL     -0.030232
    157 H75        -7.8230    3.4260    0.0800 hx        1 MOL      0.047929
    158 H76        -8.6010    2.5140   -1.2080 hx        1 MOL      0.047929
    159 H77        -8.6100    5.4770   -1.1190 hn        1 MOL      0.304696
    160 H78        -9.2900    4.5450   -2.2440 hn        1 MOL      0.304696
    161 H79        -9.9550    4.5480   -0.8000 hn        1 MOL      0.304696
    162 N14        -3.8440   -0.6990   -1.9450 n         1 MOL     -0.036619
    163 C49        -3.8880   -2.1880   -2.0000 c3        1 MOL     -0.571755
    164 C50        -5.2270   -2.6570   -2.4590 c         1 MOL      0.469321
    165 O22        -6.2700   -2.3220   -1.8880 o         1 MOL     -0.526356
    166 C51        -3.2870   -2.8880   -0.7660 c3        1 MOL      1.158950
    167 C52        -3.1460   -4.4110   -0.8570 c3        1 MOL     -1.207170
    168 C53        -2.4580   -4.9660   -2.0720 c         1 MOL      1.114827
    169 O23        -3.0510   -4.9380   -3.1810 o         1 MOL     -0.836083
    170 O24        -1.3090   -5.5220   -1.9560 o         1 MOL     -0.836083
    171 H80        -3.7820   -0.2770   -1.0270 hn        1 MOL      0.044640
    172 H81        -3.2370   -2.5580   -2.7880 h1        1 MOL      0.142988
    173 H82        -3.9900   -2.7440    0.0530 hc        1 MOL     -0.197327
    174 H83        -2.3060   -2.5170   -0.4790 hc        1 MOL     -0.197327
    175 H84        -4.0960   -4.9280   -0.7540 hc        1 MOL      0.273188
    176 H85        -2.6190   -4.6580    0.0640 hc        1 MOL      0.273188
    177 N15        -5.3510   -3.4950   -3.4500 n         1 MOL     -0.203804
    178 C54        -6.5740   -4.1380   -3.9690 c3        1 MOL     -0.248966
    179 H86        -6.3380   -5.1480   -4.3040 h1        1 MOL      0.103549
    180 H87        -7.3230   -4.1840   -3.1790 h1        1 MOL      0.103549
    181 H88        -6.9620   -3.5590   -4.8060 h1        1 MOL      0.103549
    182 H89        -4.4990   -3.8440   -3.8760 hn        1 MOL      0.345373
    183 Ca1         1.3170   -5.2280   -1.9390 Ca        1 MOL      1.625966
    184 O25         3.5140   -7.0760   -2.2520 oh        1 MOL     -0.807038
    185 H90         4.1390   -6.8990   -2.9670 ho        1 MOL      0.408725
    186 H91         3.9640   -6.7550   -1.4660 ho        1 MOL      0.408725
    187 O26         0.5220   -3.9400   -4.1560 oh        1 MOL     -0.807038
    188 H92         0.2110   -3.2210   -3.6030 ho        1 MOL      0.408725
    189 H93        -0.2260   -4.1410   -4.7310 ho        1 MOL      0.408725
    190 O27         0.6330   -7.4000   -3.2630 oh        1 MOL     -0.807038
    191 H94         0.5650   -8.2060   -2.7530 ho        1 MOL      0.408725
    192 H95        -0.1090   -7.4330   -3.8760 ho        1 MOL      0.408725
    193 O28         3.2820   -3.8770   -3.1600 oh        1 MOL     -0.807038
    194 H96         3.3040   -3.4670   -4.0250 ho        1 MOL      0.408725
    195 H97         4.1290   -4.3060   -3.0620 ho        1 MOL      0.408725
@<TRIPOS>BOND
     1    1    2 1   
     2    1    4 1   
     3    1    5 1   
     4    1    6 1   
     5    2    3 2   
     6    2    7 1   
     7    7    8 1   
     8    7   15 1   
     9    8    9 1   
    10    8   11 1   
    11    8   16 1   
    12    9   10 2   
    13    9   19 1   
    14   11   12 1   
    15   11   17 1   
    16   11   18 1   
    17   12   13 1   
    18   12   14 1   
    19   19   20 1   
    20   19   28 1   
    21   20   21 1   
    22   20   23 1   
    23   20   29 1   
    24   21   22 2   
    25   21   41 1   
    26   23   24 1   
    27   23   30 1   
    28   23   31 1   
    29   24   25 1   
    30   24   32 1   
    31   24   33 1   
    32   25   26 1   
    33   25   34 1   
    34   25   35 1   
    35   26   27 1   
    36   26   36 1   
    37   26   37 1   
    38   27   38 1   
    39   27   39 1   
    40   27   40 1   
    41   41   42 1   
    42   41   49 1   
    43   42   43 1   
    44   42   45 1   
    45   42   50 1   
    46   43   44 2   
    47   43   53 1   
    48   45   46 1   
    49   45   51 1   
    50   45   52 1   
    51   46   47 1   
    52   46   48 1   
    53   53   54 1   
    54   53   57 1   
    55   54   55 1   
    56   54   58 1   
    57   54   59 1   
    58   55   56 2   
    59   55   60 1   
    60   60   61 1   
    61   60   68 1   
    62   61   62 1   
    63   61   64 1   
    64   61   69 1   
    65   62   63 2   
    66   62   72 1   
    67   64   65 1   
    68   64   70 1   
    69   64   71 1   
    70   65   66 1   
    71   65   67 1   
    72   72   73 1   
    73   72   76 1   
    74   73   74 1   
    75   73   77 1   
    76   73   78 1   
    77   74   75 2   
    78   74   79 1   
    79   79   80 1   
    80   79   86 1   
    81   80   81 1   
    82   80   83 1   
    83   80   87 1   
    84   81   82 2   
    85   81   93 1   
    86   83   84 1   
    87   83   85 1   
    88   83   88 1   
    89   84   90 1   
    90   84   91 1   
    91   84   92 1   
    92   85   89 1   
    93   93   94 1   
    94   93  101 1   
    95   94   95 1   
    96   94   97 1   
    97   94  102 1   
    98   95   96 2   
    99   95  112 1   
   100   97   98 1   
   101   97   99 1   
   102   97  103 1   
   103   98  100 1   
   104   98  104 1   
   105   98  105 1   
   106   99  106 1   
   107   99  107 1   
   108   99  108 1   
   109  100  109 1   
   110  100  110 1   
   111  100  111 1   
   112  112  113 1   
   113  112  119 1   
   114  113  114 1   
   115  113  116 1   
   116  113  120 1   
   117  114  115 2   
   118  114  126 1   
   119  116  117 1   
   120  116  118 1   
   121  116  121 1   
   122  117  123 1   
   123  117  124 1   
   124  117  125 1   
   125  118  122 1   
   126  126  127 1   
   127  126  133 1   
   128  127  128 1   
   129  127  130 1   
   130  127  134 1   
   131  128  129 2   
   132  128  140 1   
   133  130  131 1   
   134  130  132 1   
   135  130  135 1   
   136  131  137 1   
   137  131  138 1   
   138  131  139 1   
   139  132  136 1   
   140  140  141 1   
   141  140  149 1   
   142  141  142 1   
   143  141  144 1   
   144  141  150 1   
   145  142  143 2   
   146  142  162 1   
   147  144  145 1   
   148  144  151 1   
   149  144  152 1   
   150  145  146 1   
   151  145  153 1   
   152  145  154 1   
   153  146  147 1   
   154  146  155 1   
   155  146  156 1   
   156  147  148 1   
   157  147  157 1   
   158  147  158 1   
   159  148  159 1   
   160  148  160 1   
   161  148  161 1   
   162  162  163 1   
   163  162  171 1   
   164  163  164 1   
   165  163  166 1   
   166  163  172 1   
   167  164  165 2   
   168  164  177 1   
   169  166  167 1   
   170  166  173 1   
   171  166  174 1   
   172  167  168 1   
   173  167  175 1   
   174  167  176 1   
   175  168  169 1   
   176  168  170 1   
   177  177  178 1   
   178  177  182 1   
   179  178  179 1   
   180  178  180 1   
   181  178  181 1   
   182  184  185 1   
   183  184  186 1   
   184  187  188 1   
   185  187  189 1   
   186  190  191 1   
   187  190  192 1   
   188  193  194 1   
   189  193  195 1   
@<TRIPOS>SUBSTRUCTURE
     1 MOL         1 TEMP              0 ****  ****    0 ROOT
