@<TRIPOS>MOLECULE
MOL
  192   187     1     0     0
SMALL
resp


@<TRIPOS>ATOM
      1 C1         -4.2080   -2.9200    3.9020 c3        1 MOL      0.040084
      2 C2         -3.3580   -2.6670    2.6230 c         1 MOL      0.569484
      3 O1         -2.4520   -1.8070    2.5550 o         1 MOL     -0.538023
      4 H1         -3.7870   -3.7580    4.4580 hc        1 MOL     -0.025162
      5 H2         -4.1980   -2.0270    4.5280 hc        1 MOL     -0.025162
      6 H3         -5.2340   -3.1530    3.6170 hc        1 MOL     -0.025162
      7 N1         -3.6750   -3.4560    1.5460 n         1 MOL     -0.485525
      8 C3         -3.1550   -3.2490    0.1760 c3        1 MOL     -0.056597
      9 C4         -1.6300   -3.2710    0.0380 c         1 MOL      0.560838
     10 O2         -1.1170   -2.8050   -0.9190 o         1 MOL     -0.505541
     11 C5         -3.7750   -2.0230   -0.4440 c3        1 MOL     -0.102224
     12 C6         -5.3000   -2.0730   -0.3890 c         1 MOL      0.353485
     13 O3         -6.0090   -2.0950   -1.4000 o         1 MOL     -0.599526
     14 O4         -5.9590   -1.9230    0.6640 o         1 MOL     -0.599526
     15 H4         -4.4270   -4.1270    1.6360 hn        1 MOL      0.213517
     16 H5         -3.4760   -4.1030   -0.4340 h1        1 MOL      0.126611
     17 H6         -3.5810   -1.9670   -1.5210 hc        1 MOL      0.102550
     18 H7         -3.5060   -1.0890    0.0490 hc        1 MOL      0.102550
     19 N2         -0.9370   -3.8710    0.9820 n         1 MOL     -0.363247
     20 C7          0.4810   -4.2360    0.8140 c3        1 MOL     -0.134922
     21 C8          0.6500   -5.2180   -0.2710 c         1 MOL      0.464153
     22 O5         -0.3360   -5.7850   -0.7470 o         1 MOL     -0.548067
     23 C9          1.1070   -4.7100    2.0970 c3        1 MOL      0.035465
     24 C10         0.3420   -5.8710    2.7640 c3        1 MOL      0.058480
     25 C11         1.2020   -3.4430    3.0220 c3        1 MOL     -0.054177
     26 C12         1.2140   -6.8310    3.4770 c3        1 MOL     -0.273653
     27 H8         -1.4100   -4.3740    1.7140 hn        1 MOL      0.210685
     28 H9          1.0190   -3.2970    0.6920 h1        1 MOL      0.161933
     29 H10         2.1310   -4.9990    1.8930 hc        1 MOL      0.091646
     30 H11        -0.1560   -6.4230    1.9660 hc        1 MOL      0.034557
     31 H12        -0.5240   -5.5600    3.3530 hc        1 MOL      0.034557
     32 H13         0.2530   -2.9200    3.1070 hc        1 MOL     -0.005300
     33 H14         1.4860   -3.8780    3.9780 hc        1 MOL     -0.005300
     34 H15         2.0070   -2.7980    2.6550 hc        1 MOL     -0.005300
     35 H16         0.6320   -7.6510    3.8920 hc        1 MOL      0.053925
     36 H17         2.0100   -7.1750    2.8190 hc        1 MOL      0.053925
     37 H18         1.7990   -6.3660    4.2800 hc        1 MOL      0.053925
     38 N3          1.8910   -5.3140   -0.7690 n         1 MOL     -0.427082
     39 C13         3.0990   -4.4930   -0.6890 c3        1 MOL      0.013525
     40 C14         2.9330   -3.1550   -1.5460 c         1 MOL      0.358556
     41 O6          3.2550   -2.0310   -1.1320 o         1 MOL     -0.492963
     42 C15         4.3260   -5.1890   -1.1620 c3        1 MOL     -0.124133
     43 C16         4.2070   -5.9690   -2.4660 c         1 MOL      0.688714
     44 O7          5.2600   -6.5400   -2.8420 o         1 MOL     -0.697745
     45 O8          3.1080   -6.0390   -3.0590 o         1 MOL     -0.697745
     46 H19         1.9760   -6.0110   -1.4960 hn        1 MOL      0.273199
     47 H20         3.3650   -4.2000    0.3210 h1        1 MOL      0.051421
     48 H21         4.6090   -5.8900   -0.3740 hc        1 MOL      0.027006
     49 H22         5.1620   -4.5010   -1.1000 hc        1 MOL      0.027006
     50 N4          2.2780   -3.2520   -2.7260 n         1 MOL     -0.153914
     51 C17         2.4620   -2.2220   -3.6670 c3        1 MOL     -0.274552
     52 C18         3.9650   -1.9790   -4.0690 c         1 MOL      0.584835
     53 O9          4.6920   -2.9730   -4.0720 o         1 MOL     -0.507854
     54 H23         2.0880   -4.1720   -3.0940 hn        1 MOL      0.296209
     55 H24         2.1040   -1.3410   -3.1240 h1        1 MOL      0.098700
     56 H25         1.8700   -2.4870   -4.5420 h1        1 MOL      0.098700
     57 N5          4.4020   -0.7090   -4.0040 n         1 MOL     -0.629499
     58 C19         5.7890   -0.3390   -4.1530 c3        1 MOL      0.309712
     59 C20         6.5880   -0.7740   -2.8730 c         1 MOL      0.233898
     60 O10         7.7970   -0.6440   -2.8680 o         1 MOL     -0.529602
     61 C21         5.9590    1.2280   -4.3560 c3        1 MOL     -0.359347
     62 C22         5.4150    2.1590   -3.2200 c         1 MOL      0.726587
     63 O11         5.4850    3.3850   -3.3470 o         1 MOL     -0.673650
     64 O12         4.7460    1.6170   -2.2250 o         1 MOL     -0.673650
     65 H26         3.7710    0.0420   -3.7560 hn        1 MOL      0.348816
     66 H27         6.2540   -0.7920   -5.0330 h1        1 MOL      0.030691
     67 H28         5.4270    1.4900   -5.2660 hc        1 MOL      0.072523
     68 H29         7.0350    1.4260   -4.3930 hc        1 MOL      0.072523
     69 N6          5.9480   -1.1260   -1.7600 n         1 MOL      0.081948
     70 C23         6.6130   -1.5540   -0.5050 c3        1 MOL     -0.322863
     71 C24         7.0610   -0.3510    0.3390 c         1 MOL      0.666452
     72 O13         7.6750   -0.5370    1.4060 o         1 MOL     -0.612540
     73 H30         4.9450   -1.2240   -1.8590 hn        1 MOL      0.165532
     74 H31         7.5070   -2.0800   -0.8330 h1        1 MOL      0.130707
     75 H32         5.9530   -2.2230    0.0440 h1        1 MOL      0.130707
     76 N7          6.7250    0.8940   -0.0910 n         1 MOL     -0.339883
     77 C25         7.0250    2.2290    0.4180 c3        1 MOL     -0.006781
     78 C26         6.6110    2.5890    1.8660 c         1 MOL      0.489146
     79 O14         6.5510    3.7700    2.2000 o         1 MOL     -0.531196
     80 C27         8.5120    2.4510    0.0900 c3        1 MOL     -0.126454
     81 C28         8.7090    2.7330   -1.4890 c3        1 MOL     -0.157556
     82 C29        10.1310    3.0550   -1.8550 c         1 MOL      0.593920
     83 N8         10.2980    3.7870   -2.9040 n         1 MOL     -0.664326
     84 O15        11.1390    2.5110   -1.3340 o         1 MOL     -0.584062
     85 H33         6.1110    0.9010   -0.9020 hn        1 MOL      0.138879
     86 H34         6.4810    2.9920   -0.1450 h1        1 MOL      0.144047
     87 H35         9.1300    1.6160    0.4240 hc        1 MOL      0.063435
     88 H36         8.9680    3.3450    0.5160 hc        1 MOL      0.063435
     89 H37         8.0430    3.5190   -1.8650 hc        1 MOL      0.081940
     90 H38         8.5280    1.8120   -2.0510 hc        1 MOL      0.081940
     91 H39         9.4770    4.2840   -3.2280 hn        1 MOL      0.306111
     92 H40        11.1630    4.2300   -3.1860 hn        1 MOL      0.306111
     93 N9          6.1820    1.6180    2.7310 n         1 MOL     -0.412531
     94 C30         5.5180    1.8530    4.0520 c3        1 MOL      0.197705
     95 C31         4.0540    2.2460    3.9260 c         1 MOL      0.608235
     96 O16         3.6340    3.1700    4.5900 o         1 MOL     -0.594052
     97 C32         5.6560    0.8080    5.1090 c3        1 MOL      0.172764
     98 C33         7.1400    0.8260    5.4450 c3        1 MOL     -0.333560
     99 C34         4.8830    1.0030    6.3820 c3        1 MOL     -0.333560
    100 H41         6.0990    0.7060    2.3050 hn        1 MOL      0.222681
    101 H42         5.8770    2.7910    4.4620 h1        1 MOL      0.006231
    102 H43         5.4520   -0.1560    4.6370 hc        1 MOL     -0.005839
    103 H44         7.4550    1.8360    5.7290 hc        1 MOL      0.077721
    104 H45         7.3240    0.1300    6.2610 hc        1 MOL      0.077721
    105 H46         7.6870    0.5590    4.5470 hc        1 MOL      0.077721
    106 H47         3.8510    0.6780    6.2750 hc        1 MOL      0.077721
    107 H48         5.2220    0.4140    7.2370 hc        1 MOL      0.077721
    108 H49         4.9800    1.9890    6.8390 hc        1 MOL      0.077721
    109 N10         3.2610    1.4750    3.2470 n         1 MOL     -0.495586
    110 C35         1.7950    1.4440    3.2220 c3        1 MOL      0.254647
    111 C36         1.2280    1.8350    1.8480 c         1 MOL      0.545935
    112 O17         1.9910    1.9360    0.8510 o         1 MOL     -0.501832
    113 C37         1.3080    0.0420    3.6830 c3        1 MOL     -0.274727
    114 C38         1.6730   -0.3310    5.1330 c         1 MOL      0.644004
    115 N11         2.5610   -1.2960    5.2800 n         1 MOL     -0.784771
    116 O18         1.2370    0.2700    6.0890 o         1 MOL     -0.553332
    117 H50         3.7410    0.6770    2.8420 hn        1 MOL      0.232459
    118 H51         1.3690    2.1150    3.9680 h1        1 MOL      0.045953
    119 H52         1.7430   -0.7270    3.0470 hc        1 MOL      0.103216
    120 H53         0.2160    0.0630    3.7060 hc        1 MOL      0.103216
    121 H54         3.0310   -1.7370    4.5050 hn        1 MOL      0.354457
    122 H55         2.7780   -1.4880    6.2500 hn        1 MOL      0.354457
    123 N12        -0.0960    2.0480    1.6310 n         1 MOL     -0.646248
    124 C39        -0.7070    2.3110    0.3110 c3        1 MOL      0.161899
    125 C40        -2.0320    3.1560    0.4130 c         1 MOL      0.740424
    126 O19        -2.7400    2.8820    1.3960 o         1 MOL     -0.647012
    127 C41        -0.9710    0.9580   -0.4240 c3        1 MOL     -0.271397
    128 C42        -1.5280    1.0970   -1.7680 ca        1 MOL      0.031868
    129 C43        -2.9090    0.9560   -1.9780 ca        1 MOL     -0.138547
    130 C44        -0.7350    1.4050   -2.8710 ca        1 MOL     -0.138547
    131 C45        -3.5010    1.2740   -3.2540 ca        1 MOL     -0.275153
    132 C46        -1.3070    1.7060   -4.1330 ca        1 MOL     -0.275153
    133 C47        -2.6660    1.6290   -4.3210 ca        1 MOL      0.349105
    134 O20        -3.1090    1.8910   -5.5780 oh        1 MOL     -0.513604
    135 H56        -0.6940    1.8180    2.4120 hn        1 MOL      0.333844
    136 H57        -0.0890    2.9310   -0.3370 h1        1 MOL      0.071594
    137 H58        -1.5850    0.2360    0.1280 hc        1 MOL      0.140614
    138 H59        -0.0350    0.4030   -0.4850 hc        1 MOL      0.140614
    139 H60        -3.5770    0.5630   -1.2180 ha        1 MOL      0.153373
    140 H61         0.3300    1.5400   -2.9610 ha        1 MOL      0.153373
    141 H62        -4.5750    1.2660   -3.3450 ha        1 MOL      0.148024
    142 H63        -0.6990    1.9360   -4.9940 ha        1 MOL      0.148024
    143 H64        -3.9900    1.5100   -5.6530 ho        1 MOL      0.366043
    144 N13        -2.3470    4.1460   -0.4180 n         1 MOL     -0.670857
    145 C48        -3.5930    4.8930   -0.3300 c3        1 MOL      0.118983
    146 C49        -4.7140    4.3870   -1.3390 c         1 MOL      0.715535
    147 O21        -4.7120    4.7440   -2.5160 o         1 MOL     -0.579327
    148 C50        -3.1700    6.3790   -0.5280 c3        1 MOL      0.214960
    149 C51        -4.2400    7.3640   -0.0940 c3        1 MOL     -0.191698
    150 C52        -4.1650    8.7130   -0.8690 c         1 MOL      0.654955
    151 O22        -4.7390    8.8940   -1.9700 o         1 MOL     -0.649701
    152 O23        -3.4210    9.5650   -0.2930 o         1 MOL     -0.649701
    153 H65        -1.7770    4.4000   -1.2170 hn        1 MOL      0.331815
    154 H66        -4.1080    4.8420    0.6330 h1        1 MOL      0.084695
    155 H67        -2.9580    6.5300   -1.5830 hc        1 MOL     -0.034788
    156 H68        -2.2420    6.6230   -0.0180 hc        1 MOL     -0.034788
    157 H69        -4.1300    7.5210    0.9850 hc        1 MOL      0.005523
    158 H70        -5.1860    6.8890   -0.3280 hc        1 MOL      0.005523
    159 N14        -5.6590    3.5040   -1.0150 n         1 MOL     -0.502399
    160 C53        -5.7750    2.6210    0.1190 c3        1 MOL     -0.333607
    161 C54        -6.3470    3.1850    1.4590 c         1 MOL      0.554825
    162 O24        -6.7760    4.3410    1.5010 o         1 MOL     -0.522309
    163 C55        -6.5460    1.3590   -0.4090 c3        1 MOL      0.917500
    164 C56        -8.0320    1.6770   -0.5730 c3        1 MOL     -0.153903
    165 C57        -8.8100    0.5350   -1.1680 c         1 MOL      0.579095
    166 O25        -8.9660   -0.5670   -0.5780 o         1 MOL     -0.672829
    167 O26        -9.1710    0.7090   -2.3620 o         1 MOL     -0.672829
    168 H71        -6.3290    3.2400   -1.7230 hn        1 MOL      0.262032
    169 H72        -4.8110    2.1660    0.3280 h1        1 MOL      0.092880
    170 H73        -6.3460    0.4890    0.2110 hc        1 MOL     -0.227651
    171 H74        -6.1170    1.1010   -1.3700 hc        1 MOL     -0.227651
    172 H75        -8.2450    2.5750   -1.1490 hc        1 MOL     -0.028157
    173 H76        -8.3890    1.6840    0.4530 hc        1 MOL     -0.028157
    174 N15        -6.3300    2.3840    2.5500 n         1 MOL     -0.304716
    175 C58        -7.0780    2.8060    3.8050 c3        1 MOL     -0.427675
    176 H77        -7.6800    3.6880    3.5880 h1        1 MOL      0.150314
    177 H78        -7.7280    1.9940    4.1320 h1        1 MOL      0.150314
    178 H79        -6.3630    3.0410    4.5930 h1        1 MOL      0.150314
    179 H80        -5.8980    1.4710    2.4990 hn        1 MOL      0.279891
    180 Ca1        -8.2120   -2.9810   -0.2200 Ca        1 MOL      1.721899
    181 O27        -7.2590   -5.0240   -1.6480 oh        1 MOL     -0.922357
    182 H81        -6.4110   -5.2420   -1.2740 ho        1 MOL      0.427000
    183 H82        -7.4100   -5.6880   -2.3240 ho        1 MOL      0.427000
    184 O28        -9.3340   -2.7800   -2.6840 oh        1 MOL     -0.922357
    185 H83        -9.8220   -3.5160   -3.0550 ho        1 MOL      0.427000
    186 H84        -9.4100   -2.0830   -3.3420 ho        1 MOL      0.427000
    187 O29       -10.5930   -4.2090    0.3440 oh        1 MOL     -0.922357
    188 H85       -11.1630   -3.6670    0.8920 ho        1 MOL      0.427000
    189 H86       -11.1240   -4.9600    0.1150 ho        1 MOL      0.427000
    190 O30        -8.9750   -1.8430    2.2300 oh        1 MOL     -0.922357
    191 H87        -8.3660   -1.7610    2.9600 ho        1 MOL      0.427000
    192 H88        -9.8210   -1.5820    2.5900 ho        1 MOL      0.427000
@<TRIPOS>BOND
     1    1    2 1   
     2    1    4 1   
     3    1    5 1   
     4    1    6 1   
     5    2    3 2   
     6    2    7 1   
     7    7    8 1   
     8    7   15 1   
     9    8    9 1   
    10    8   11 1   
    11    8   16 1   
    12    9   10 2   
    13    9   19 1   
    14   11   12 1   
    15   11   17 1   
    16   11   18 1   
    17   12   13 1   
    18   12   14 1   
    19   19   20 1   
    20   19   27 1   
    21   20   21 1   
    22   20   23 1   
    23   20   28 1   
    24   21   22 2   
    25   21   38 1   
    26   23   24 1   
    27   23   25 1   
    28   23   29 1   
    29   24   26 1   
    30   24   30 1   
    31   24   31 1   
    32   25   32 1   
    33   25   33 1   
    34   25   34 1   
    35   26   35 1   
    36   26   36 1   
    37   26   37 1   
    38   38   39 1   
    39   38   46 1   
    40   39   40 1   
    41   39   42 1   
    42   39   47 1   
    43   40   41 2   
    44   40   50 1   
    45   42   43 1   
    46   42   48 1   
    47   42   49 1   
    48   43   44 1   
    49   43   45 1   
    50   50   51 1   
    51   50   54 1   
    52   51   52 1   
    53   51   55 1   
    54   51   56 1   
    55   52   53 2   
    56   52   57 1   
    57   57   58 1   
    58   57   65 1   
    59   58   59 1   
    60   58   61 1   
    61   58   66 1   
    62   59   60 2   
    63   59   69 1   
    64   61   62 1   
    65   61   67 1   
    66   61   68 1   
    67   62   63 1   
    68   62   64 1   
    69   69   70 1   
    70   69   73 1   
    71   70   71 1   
    72   70   74 1   
    73   70   75 1   
    74   71   72 2   
    75   71   76 1   
    76   76   77 1   
    77   76   85 1   
    78   77   78 1   
    79   77   80 1   
    80   77   86 1   
    81   78   79 2   
    82   78   93 1   
    83   80   81 1   
    84   80   87 1   
    85   80   88 1   
    86   81   82 1   
    87   81   89 1   
    88   81   90 1   
    89   82   83 1   
    90   82   84 2   
    91   83   91 1   
    92   83   92 1   
    93   93   94 1   
    94   93  100 1   
    95   94   95 1   
    96   94   97 1   
    97   94  101 1   
    98   95   96 2   
    99   95  109 1   
   100   97   98 1   
   101   97   99 1   
   102   97  102 1   
   103   98  103 1   
   104   98  104 1   
   105   98  105 1   
   106   99  106 1   
   107   99  107 1   
   108   99  108 1   
   109  109  110 1   
   110  109  117 1   
   111  110  111 1   
   112  110  113 1   
   113  110  118 1   
   114  111  112 2   
   115  111  123 1   
   116  113  114 1   
   117  113  119 1   
   118  113  120 1   
   119  114  115 1   
   120  114  116 2   
   121  115  121 1   
   122  115  122 1   
   123  123  124 1   
   124  123  135 1   
   125  124  125 1   
   126  124  127 1   
   127  124  136 1   
   128  125  126 2   
   129  125  144 1   
   130  127  128 1   
   131  127  137 1   
   132  127  138 1   
   133  128  129 ar  
   134  128  130 ar  
   135  129  131 ar  
   136  129  139 1   
   137  130  132 ar  
   138  130  140 1   
   139  131  133 ar  
   140  131  141 1   
   141  132  133 ar  
   142  132  142 1   
   143  133  134 1   
   144  134  143 1   
   145  144  145 1   
   146  144  153 1   
   147  145  146 1   
   148  145  148 1   
   149  145  154 1   
   150  146  147 2   
   151  146  159 1   
   152  148  149 1   
   153  148  155 1   
   154  148  156 1   
   155  149  150 1   
   156  149  157 1   
   157  149  158 1   
   158  150  151 1   
   159  150  152 1   
   160  159  160 1   
   161  159  168 1   
   162  160  161 1   
   163  160  163 1   
   164  160  169 1   
   165  161  162 2   
   166  161  174 1   
   167  163  164 1   
   168  163  170 1   
   169  163  171 1   
   170  164  165 1   
   171  164  172 1   
   172  164  173 1   
   173  165  166 1   
   174  165  167 1   
   175  174  175 1   
   176  174  179 1   
   177  175  176 1   
   178  175  177 1   
   179  175  178 1   
   180  181  182 1   
   181  181  183 1   
   182  184  185 1   
   183  184  186 1   
   184  187  188 1   
   185  187  189 1   
   186  190  191 1   
   187  190  192 1   
@<TRIPOS>SUBSTRUCTURE
     1 MOL         1 TEMP              0 ****  ****    0 ROOT
