@<TRIPOS>MOLECULE
MOL
  178   175     1     0     0
SMALL
resp


@<TRIPOS>ATOM
      1 C1          5.1970   -0.8610    3.8630 c3        1 MOL     -0.331855
      2 C2          6.6090   -0.4560    3.3940 c         1 MOL      0.610235
      3 O1          6.9510    0.7200    3.3460 o         1 MOL     -0.561176
      4 H1          4.8570   -0.1670    4.6310 hc        1 MOL      0.084555
      5 H2          4.5100   -0.8300    3.0170 hc        1 MOL      0.084555
      6 H3          5.2250   -1.8710    4.2720 hc        1 MOL      0.084555
      7 N1          7.3190   -1.4690    2.9270 n         1 MOL     -0.497434
      8 C3          8.6930   -1.2500    2.3600 c3        1 MOL      0.162898
      9 C4          8.5490   -0.6730    0.8880 c         1 MOL      0.382105
     10 O2          8.5910   -1.4490   -0.0960 o         1 MOL     -0.510826
     11 C5          9.3960   -2.5910    2.5000 c3        1 MOL     -0.239099
     12 C6         10.9240   -2.5920    2.1600 c         1 MOL      0.712076
     13 O3         11.4580   -1.4620    1.9140 o         1 MOL     -0.724744
     14 O4         11.5720   -3.6820    2.2790 o         1 MOL     -0.724744
     15 H4          7.0230   -2.4260    3.0280 hn        1 MOL      0.319524
     16 H5          9.2330   -0.5900    3.0440 h1        1 MOL      0.046740
     17 H6          8.8310   -3.3670    1.9750 hc        1 MOL      0.025244
     18 H7          9.2880   -2.9250    3.5360 hc        1 MOL      0.025244
     19 N2          8.2850    0.6210    0.8110 n         1 MOL     -0.273317
     20 C7          8.1740    1.4930   -0.3800 c3        1 MOL      0.237191
     21 C8          6.7810    1.4310   -1.0000 c         1 MOL      0.599968
     22 O5          5.9760    2.3110   -0.9010 o         1 MOL     -0.548722
     23 C9          8.6540    2.8830    0.0850 c3        1 MOL     -0.380866
     24 H8          8.1980    1.1080    1.6910 hn        1 MOL      0.206112
     25 H9          8.9320    1.1740   -1.0930 h1        1 MOL      0.039737
     26 H10         9.7400    3.0050    0.1260 hc        1 MOL      0.091823
     27 H11         8.3280    3.6670   -0.5950 hc        1 MOL      0.091823
     28 H12         8.2230    3.1520    1.0510 hc        1 MOL      0.091823
     29 N3          6.5410    0.2620   -1.6360 n         1 MOL     -0.681728
     30 C10         5.2630   -0.0180   -2.3080 c3        1 MOL      0.356490
     31 C11         4.9840    0.8600   -3.5390 c         1 MOL      0.473729
     32 O6          5.9580    1.1250   -4.2860 o         1 MOL     -0.545458
     33 C12         5.2600   -1.5490   -2.6680 c3        1 MOL     -0.097957
     34 C13         3.8640   -2.1480   -2.4620 c         1 MOL      0.724885
     35 O7          3.6640   -3.3120   -2.9470 o         1 MOL     -0.796400
     36 O8          2.9660   -1.6590   -1.7190 o         1 MOL     -0.796400
     37 H13         7.3090   -0.3680   -1.8150 hn        1 MOL      0.284088
     38 H14         4.4620    0.1970   -1.6000 h1        1 MOL      0.026033
     39 H15         5.9730   -2.0600   -2.0190 hc        1 MOL      0.029716
     40 H16         5.5510   -1.7430   -3.6990 hc        1 MOL      0.029716
     41 N4          3.7030    1.1680   -3.7920 n         1 MOL     -0.339105
     42 C14         3.3750    2.1060   -4.8720 c3        1 MOL     -0.255152
     43 C15         2.1350    3.0320   -4.7290 c         1 MOL      0.741606
     44 O9          1.9880    4.0090   -5.4160 o         1 MOL     -0.603177
     45 H17         2.9910    0.8090   -3.1880 hn        1 MOL      0.230279
     46 H18         3.3070    1.4640   -5.7580 h1        1 MOL      0.111866
     47 H19         4.2280    2.7900   -4.9610 h1        1 MOL      0.111866
     48 N5          1.1930    2.7340   -3.7990 n         1 MOL     -0.635531
     49 C16        -0.0810    3.5430   -3.7110 c3        1 MOL      0.228452
     50 C17        -0.0680    4.4730   -2.5350 c         1 MOL      0.521525
     51 O10         0.4760    4.0520   -1.4940 o         1 MOL     -0.524708
     52 C18        -1.3010    2.5140   -3.6760 c3        1 MOL     -0.308786
     53 C19        -2.6580    3.2240   -3.8950 c         1 MOL      0.719730
     54 N6         -3.7640    2.5580   -3.8160 n         1 MOL     -0.853689
     55 O11        -2.7000    4.3980   -4.0860 o         1 MOL     -0.555266
     56 H20         1.3030    1.8620   -3.3050 hn        1 MOL      0.390814
     57 H21        -0.2600    4.1530   -4.5910 h1        1 MOL      0.020285
     58 H22        -1.2610    1.9630   -2.7310 hc        1 MOL      0.081381
     59 H23        -1.1720    1.7480   -4.4360 hc        1 MOL      0.081381
     60 H24        -3.6750    1.5560   -3.6950 hn        1 MOL      0.379810
     61 H25        -4.6850    2.9730   -3.7300 hn        1 MOL      0.379810
     62 N7         -0.5780    5.6970   -2.6670 n         1 MOL     -0.267853
     63 C20        -0.5310    6.7040   -1.6060 c3        1 MOL     -0.422326
     64 C21        -1.6240    6.4170   -0.5680 c         1 MOL      0.671523
     65 O12        -2.6560    5.8090   -0.8240 o         1 MOL     -0.502149
     66 H26        -0.9580    5.9660   -3.5640 hn        1 MOL      0.274639
     67 H27        -0.7840    7.6050   -2.1630 h1        1 MOL      0.167232
     68 H28         0.4510    6.6930   -1.1490 h1        1 MOL      0.167232
     69 N8         -1.4570    6.8200    0.6880 n         1 MOL     -0.452270
     70 C22        -2.4600    6.7880    1.7320 c3        1 MOL     -0.196766
     71 C23        -2.7800    5.4420    2.3670 c         1 MOL      0.467671
     72 O13        -3.8640    5.2740    2.8300 o         1 MOL     -0.565726
     73 C24        -2.1690    7.7350    2.8590 c3        1 MOL      0.458970
     74 C25        -1.1390    7.3470    3.9130 c3        1 MOL     -0.279643
     75 O14        -1.8650    9.0720    2.4710 oh        1 MOL     -0.626262
     76 H29        -0.6560    7.4370    0.8070 hn        1 MOL      0.250815
     77 H30        -3.3910    7.1220    1.2630 h1        1 MOL      0.131332
     78 H31        -3.1150    7.8880    3.3850 h1        1 MOL      0.032049
     79 H32        -0.9770    9.0300    2.0870 ho        1 MOL      0.365291
     80 H33        -0.3840    6.7300    3.4240 hc        1 MOL      0.058237
     81 H34        -0.6120    8.1650    4.4000 hc        1 MOL      0.058237
     82 H35        -1.4800    6.6240    4.6640 hc        1 MOL      0.058237
     83 N9         -1.8670    4.5140    2.3460 n         1 MOL     -0.172831
     84 C26        -2.1320    3.0790    2.8010 c3        1 MOL      0.004256
     85 C27        -1.4180    2.1340    1.8180 c         1 MOL      0.373605
     86 O15        -0.3490    2.4770    1.3300 o         1 MOL     -0.443868
     87 C28        -1.8300    2.7270    4.2520 c3        1 MOL      0.068644
     88 C29        -0.3950    2.5350    4.7810 c3        1 MOL      0.291556
     89 C30        -2.6610    3.6540    5.2380 c3        1 MOL     -0.195767
     90 C31         0.4440    3.7680    4.7030 c3        1 MOL     -0.202162
     91 H36        -1.0280    4.6730    1.8110 hn        1 MOL      0.207662
     92 H37        -3.1980    2.9000    2.7300 h1        1 MOL      0.072248
     93 H38        -2.2810    1.7360    4.3480 hc        1 MOL     -0.029239
     94 H39         0.0290    1.6990    4.2120 hc        1 MOL     -0.063003
     95 H40        -0.4000    2.1340    5.8030 hc        1 MOL     -0.063003
     96 H41        -2.3650    4.6930    5.3370 hc        1 MOL      0.044587
     97 H42        -3.7090    3.6920    4.9480 hc        1 MOL      0.044587
     98 H43        -2.7590    3.2220    6.2310 hc        1 MOL      0.044587
     99 H44         1.3900    3.5880    5.2260 hc        1 MOL      0.032893
    100 H45         0.6550    3.9610    3.6590 hc        1 MOL      0.032893
    101 H46        -0.0930    4.5860    5.1970 hc        1 MOL      0.032893
    102 N10        -2.0350    1.0240    1.4570 n         1 MOL     -0.372327
    103 C32        -1.6550    0.0700    0.5470 c3        1 MOL      0.186374
    104 C33        -2.9420   -0.5980   -0.0130 c         1 MOL      0.341990
    105 O16        -2.9490   -1.8080   -0.2540 o         1 MOL     -0.358130
    106 C34        -0.7250   -0.9320    1.2170 c3        1 MOL     -0.542581
    107 C35        -0.0830   -1.9020    0.1600 c         1 MOL      0.928477
    108 O17        -0.1490   -1.7590   -1.0880 o         1 MOL     -0.783985
    109 O18         0.5670   -2.8510    0.6040 o         1 MOL     -0.783985
    110 H47        -2.9460    0.9040    1.8770 hn        1 MOL      0.252385
    111 H48        -1.0850    0.5360   -0.2670 h1        1 MOL      0.097920
    112 H49        -1.2680   -1.6090    1.8810 hc        1 MOL      0.172790
    113 H50         0.1090   -0.3940    1.6540 hc        1 MOL      0.172790
    114 N11        -4.0450    0.0910   -0.1980 n         1 MOL     -0.423762
    115 C36        -5.3190   -0.5200   -0.5820 c3        1 MOL      0.184033
    116 C37        -5.8100   -1.6610    0.3870 c         1 MOL      0.283545
    117 O19        -5.7580   -1.3790    1.5990 o         1 MOL     -0.511352
    118 C38        -6.3850    0.5730   -0.8980 c3        1 MOL     -0.194528
    119 C39        -7.7590   -0.0210   -1.4360 ca        1 MOL      0.058804
    120 C40        -8.0680   -0.2390   -2.7920 ca        1 MOL     -0.161856
    121 C41        -8.6440   -0.5760   -0.4370 ca        1 MOL     -0.161856
    122 C42        -9.2810   -0.8600   -3.2090 ca        1 MOL     -0.100313
    123 C43        -9.8480   -1.1420   -0.9010 ca        1 MOL     -0.100313
    124 C44       -10.2130   -1.2930   -2.2610 ca        1 MOL     -0.116764
    125 H51        -4.0010    1.0780    0.0270 hn        1 MOL      0.244302
    126 H52        -5.0030   -1.0250   -1.5010 h1        1 MOL      0.000308
    127 H53        -5.9990    1.1810   -1.7170 hc        1 MOL      0.096622
    128 H54        -6.4650    1.2410   -0.0430 hc        1 MOL      0.096622
    129 H55        -7.2710    0.0430   -3.4570 ha        1 MOL      0.123018
    130 H56        -8.4760   -0.6050    0.6270 ha        1 MOL      0.123018
    131 H57        -9.3780   -1.1080   -4.2530 ha        1 MOL      0.101950
    132 H58       -10.4150   -1.6830   -0.1590 ha        1 MOL      0.101950
    133 H59       -11.0860   -1.7900   -2.6660 ha        1 MOL      0.111590
    134 N12        -6.2610   -2.8400   -0.0340 n         1 MOL      0.108695
    135 C45        -6.6910   -3.8590    0.8660 c3        1 MOL     -0.134601
    136 C46        -5.6240   -4.4460    1.7640 c         1 MOL      0.638408
    137 O20        -5.9850   -5.0050    2.7900 o         1 MOL     -0.589612
    138 C47        -7.1590   -4.9380   -0.0840 c3        1 MOL     -0.163140
    139 C48        -6.1660   -4.8380   -1.2220 c3        1 MOL      0.037331
    140 C49        -6.0500   -3.3310   -1.4450 c3        1 MOL      0.072636
    141 H60        -7.4880   -3.5520    1.5460 h1        1 MOL      0.081553
    142 H61        -7.1150   -5.9180    0.3810 hc        1 MOL      0.058674
    143 H62        -8.1500   -4.7400   -0.4950 hc        1 MOL      0.058674
    144 H63        -5.2220   -5.2910   -0.9430 hc        1 MOL      0.000248
    145 H64        -6.5490   -5.2440   -2.1620 hc        1 MOL      0.000248
    146 H65        -5.0150   -3.1730   -1.7380 h1        1 MOL     -0.018303
    147 H66        -6.8190   -2.8770   -2.0740 h1        1 MOL     -0.018303
    148 N13        -4.3270   -4.2640    1.4230 n         1 MOL     -0.325849
    149 C50        -3.1880   -4.8370    2.1750 c3        1 MOL     -0.245955
    150 C51        -2.9640   -4.2070    3.5710 c         1 MOL      0.522255
    151 O21        -2.1820   -4.7130    4.3410 o         1 MOL     -0.531956
    152 C52        -1.8880   -4.7730    1.2900 c3        1 MOL      0.226000
    153 C53        -1.9080   -5.8570    0.1600 c3        1 MOL     -0.213918
    154 C54        -0.5580   -5.7840   -0.6400 c         1 MOL      0.625237
    155 O22        -0.6250   -5.2780   -1.8170 o         1 MOL     -0.706118
    156 O23         0.5640   -6.0850   -0.1430 o         1 MOL     -0.706118
    157 H67        -4.1290   -3.8070    0.5440 hn        1 MOL      0.283293
    158 H68        -3.3980   -5.8920    2.3250 h1        1 MOL      0.116948
    159 H69        -1.0490   -4.9840    1.9500 hc        1 MOL     -0.020498
    160 H70        -1.7730   -3.7740    0.8810 hc        1 MOL     -0.020498
    161 H71        -2.7170   -5.6100   -0.5210 hc        1 MOL      0.032903
    162 H72        -2.0900   -6.8930    0.4510 hc        1 MOL      0.032903
    163 N14        -3.7380   -3.1760    3.9540 n         1 MOL     -0.144321
    164 C55        -3.6200   -2.3560    5.1540 c3        1 MOL     -0.317607
    165 H73        -4.0280   -2.8990    6.0060 h1        1 MOL      0.115642
    166 H74        -2.5700   -2.1280    5.3380 h1        1 MOL      0.115642
    167 H75        -4.1750   -1.4280    5.0160 h1        1 MOL      0.115642
    168 H76        -4.5260   -2.9620    3.3580 hn        1 MOL      0.154867
    169 Ca1         1.5820   -3.9260   -1.5380 Ca        1 MOL      1.768104
    170 O24         0.6960   -2.9710   -3.8500 oh        1 MOL     -0.814940
    171 H77         1.4050   -2.8560   -4.4930 ho        1 MOL      0.401073
    172 H78        -0.0990   -3.0570   -4.3760 ho        1 MOL      0.401073
    173 O25         2.0460   -5.9620   -3.2160 oh        1 MOL     -0.814940
    174 H79         2.4940   -6.7560   -2.9390 ho        1 MOL      0.401073
    175 H80         2.2040   -5.9140   -4.1620 ho        1 MOL      0.401073
    176 O26         3.7850   -4.9450   -0.1130 oh        1 MOL     -0.814940
    177 H81         4.3450   -4.2870    0.2800 ho        1 MOL      0.401073
    178 H82         4.0740   -5.7710    0.2830 ho        1 MOL      0.401073
@<TRIPOS>BOND
     1    1    2 1   
     2    1    4 1   
     3    1    5 1   
     4    1    6 1   
     5    2    3 2   
     6    2    7 1   
     7    7    8 1   
     8    7   15 1   
     9    8    9 1   
    10    8   11 1   
    11    8   16 1   
    12    9   10 2   
    13    9   19 1   
    14   11   12 1   
    15   11   17 1   
    16   11   18 1   
    17   12   13 1   
    18   12   14 1   
    19   19   20 1   
    20   19   24 1   
    21   20   21 1   
    22   20   23 1   
    23   20   25 1   
    24   21   22 2   
    25   21   29 1   
    26   23   26 1   
    27   23   27 1   
    28   23   28 1   
    29   29   30 1   
    30   29   37 1   
    31   30   31 1   
    32   30   33 1   
    33   30   38 1   
    34   31   32 2   
    35   31   41 1   
    36   33   34 1   
    37   33   39 1   
    38   33   40 1   
    39   34   35 1   
    40   34   36 1   
    41   41   42 1   
    42   41   45 1   
    43   42   43 1   
    44   42   46 1   
    45   42   47 1   
    46   43   44 2   
    47   43   48 1   
    48   48   49 1   
    49   48   56 1   
    50   49   50 1   
    51   49   52 1   
    52   49   57 1   
    53   50   51 2   
    54   50   62 1   
    55   52   53 1   
    56   52   58 1   
    57   52   59 1   
    58   53   54 1   
    59   53   55 2   
    60   54   60 1   
    61   54   61 1   
    62   62   63 1   
    63   62   66 1   
    64   63   64 1   
    65   63   67 1   
    66   63   68 1   
    67   64   65 2   
    68   64   69 1   
    69   69   70 1   
    70   69   76 1   
    71   70   71 1   
    72   70   73 1   
    73   70   77 1   
    74   71   72 2   
    75   71   83 1   
    76   73   74 1   
    77   73   75 1   
    78   73   78 1   
    79   74   80 1   
    80   74   81 1   
    81   74   82 1   
    82   75   79 1   
    83   83   84 1   
    84   83   91 1   
    85   84   85 1   
    86   84   87 1   
    87   84   92 1   
    88   85   86 2   
    89   85  102 1   
    90   87   88 1   
    91   87   89 1   
    92   87   93 1   
    93   88   90 1   
    94   88   94 1   
    95   88   95 1   
    96   89   96 1   
    97   89   97 1   
    98   89   98 1   
    99   90   99 1   
   100   90  100 1   
   101   90  101 1   
   102  102  103 1   
   103  102  110 1   
   104  103  104 1   
   105  103  106 1   
   106  103  111 1   
   107  104  105 2   
   108  104  114 1   
   109  106  107 1   
   110  106  112 1   
   111  106  113 1   
   112  107  108 1   
   113  107  109 1   
   114  114  115 1   
   115  114  125 1   
   116  115  116 1   
   117  115  118 1   
   118  115  126 1   
   119  116  117 2   
   120  116  134 1   
   121  118  119 1   
   122  118  127 1   
   123  118  128 1   
   124  119  120 ar  
   125  119  121 ar  
   126  120  122 ar  
   127  120  129 1   
   128  121  123 ar  
   129  121  130 1   
   130  122  124 ar  
   131  122  131 1   
   132  123  124 ar  
   133  123  132 1   
   134  124  133 1   
   135  134  135 1   
   136  134  140 1   
   137  135  136 1   
   138  135  138 1   
   139  135  141 1   
   140  136  137 2   
   141  136  148 1   
   142  138  139 1   
   143  138  142 1   
   144  138  143 1   
   145  139  140 1   
   146  139  144 1   
   147  139  145 1   
   148  140  146 1   
   149  140  147 1   
   150  148  149 1   
   151  148  157 1   
   152  149  150 1   
   153  149  152 1   
   154  149  158 1   
   155  150  151 2   
   156  150  163 1   
   157  152  153 1   
   158  152  159 1   
   159  152  160 1   
   160  153  154 1   
   161  153  161 1   
   162  153  162 1   
   163  154  155 1   
   164  154  156 1   
   165  163  164 1   
   166  163  168 1   
   167  164  165 1   
   168  164  166 1   
   169  164  167 1   
   170  170  171 1   
   171  170  172 1   
   172  173  174 1   
   173  173  175 1   
   174  176  177 1   
   175  176  178 1   
@<TRIPOS>SUBSTRUCTURE
     1 MOL         1 TEMP              0 ****  ****    0 ROOT
