@<TRIPOS>MOLECULE
MOL
  201   193     1     0     0
SMALL
resp


@<TRIPOS>ATOM
      1 C1         -3.1330    5.5970    2.2550 c3        1 MOL     -0.332016
      2 C2         -3.8470    4.3170    2.7110 c         1 MOL      0.664062
      3 O1         -3.3950    3.6800    3.6800 o         1 MOL     -0.571656
      4 H1         -3.5560    6.4550    2.7800 hc        1 MOL      0.089860
      5 H2         -2.0700    5.5210    2.4810 hc        1 MOL      0.089860
      6 H3         -3.2680    5.7270    1.1810 hc        1 MOL      0.089860
      7 N1         -5.0220    4.0320    2.0570 n         1 MOL     -0.525425
      8 C3         -5.8910    2.9140    2.3160 c3        1 MOL      0.115263
      9 C4         -5.5280    1.5820    1.6650 c         1 MOL      0.459010
     10 O2         -5.0210    1.5210    0.5700 o         1 MOL     -0.566724
     11 C5         -7.4210    3.1890    2.1220 c3        1 MOL     -0.362116
     12 C6         -7.8280    3.7230    0.7360 c         1 MOL      0.854834
     13 O3         -6.9560    3.8160   -0.0910 o         1 MOL     -0.764150
     14 O4         -9.0410    3.9890    0.4890 o         1 MOL     -0.764150
     15 H4         -5.2300    4.6690    1.3160 hn        1 MOL      0.333064
     16 H5         -5.8250    2.8050    3.4020 h1        1 MOL      0.052529
     17 H6         -7.7030    3.9430    2.8610 hc        1 MOL      0.107586
     18 H7         -8.0190    2.3050    2.3420 hc        1 MOL      0.107586
     19 N2         -5.8400    0.4940    2.3500 n         1 MOL     -0.203528
     20 C7         -5.5760   -0.8650    1.9490 c3        1 MOL     -0.604580
     21 C8         -6.6980   -1.6510    1.1100 c         1 MOL      0.597510
     22 O5         -6.5880   -2.8440    0.8100 o         1 MOL     -0.526293
     23 C9         -5.0460   -1.6560    3.2010 c3        1 MOL      0.041443
     24 C10        -6.1640   -2.1520    4.1020 c3        1 MOL      0.036718
     25 C11        -5.5320   -2.7330    5.3830 c3        1 MOL     -0.325788
     26 C12        -4.2690   -3.5550    5.1690 c3        1 MOL      0.049067
     27 N3         -4.5790   -4.8080    4.5010 n4        1 MOL     -0.369289
     28 H8         -6.2510    0.6030    3.2650 hn        1 MOL      0.236374
     29 H9         -4.7600   -0.7400    1.2460 h1        1 MOL      0.303207
     30 H10        -4.3160   -1.1050    3.7950 hc        1 MOL      0.062666
     31 H11        -4.5380   -2.5300    2.7840 hc        1 MOL      0.062666
     32 H12        -6.6460   -2.9270    3.5180 hc        1 MOL      0.050871
     33 H13        -6.8780   -1.3830    4.4290 hc        1 MOL      0.050871
     34 H14        -6.1890   -3.2530    6.0810 hc        1 MOL      0.128362
     35 H15        -5.1350   -1.8660    5.9140 hc        1 MOL      0.128362
     36 H16        -3.8840   -3.8830    6.1410 hx        1 MOL      0.077899
     37 H17        -3.4150   -3.1120    4.6470 hx        1 MOL      0.077899
     38 H18        -3.7450   -5.3520    4.3370 hn        1 MOL      0.327116
     39 H19        -5.2620   -5.1860    5.1380 hn        1 MOL      0.327116
     40 H20        -5.0230   -4.6480    3.6040 hn        1 MOL      0.327116
     41 N4         -7.7540   -0.8710    0.8060 n         1 MOL     -0.345820
     42 C13        -8.9970   -1.3690    0.1640 c3        1 MOL      0.045535
     43 C14        -9.2750   -0.5970   -1.1450 c         1 MOL      0.727102
     44 O6         -9.0400    0.6330   -1.2210 o         1 MOL     -0.785448
     45 C15       -10.2170   -1.2540    1.1650 c3        1 MOL     -0.217881
     46 C16       -11.4380   -1.9230    0.5350 c         1 MOL      0.654603
     47 O7        -11.5300   -3.2340    0.6100 o         1 MOL     -0.690293
     48 O8        -12.1150   -1.2320   -0.2080 o         1 MOL     -0.690293
     49 H21        -7.7250    0.1200    0.9420 hn        1 MOL      0.250200
     50 H22        -8.8810   -2.4100   -0.1350 h1        1 MOL      0.090937
     51 H23       -10.3990   -0.2220    1.4730 hc        1 MOL      0.035686
     52 H24        -9.9970   -1.8420    2.0550 hc        1 MOL      0.035686
     53 N5         -9.7070   -1.2620   -2.2280 n         1 MOL     -0.360622
     54 C17        -9.7070   -2.7090   -2.5500 c3        1 MOL     -0.213276
     55 C18        -8.3250   -3.4010   -2.5280 c         1 MOL      0.620268
     56 O9         -8.2060   -4.5990   -2.3200 o         1 MOL     -0.528488
     57 H25        -9.7710   -0.6260   -3.0120 hn        1 MOL      0.335479
     58 H26       -10.1570   -2.9450   -3.5070 h1        1 MOL      0.126977
     59 H27       -10.2530   -3.2550   -1.7770 h1        1 MOL      0.126977
     60 N6         -7.2450   -2.6630   -2.6700 n         1 MOL     -0.548028
     61 C19        -5.8440   -3.0800   -2.3510 c3        1 MOL      0.160925
     62 C20        -4.9720   -1.8410   -1.9690 c         1 MOL      0.573068
     63 O10        -5.2680   -0.7400   -2.4130 o         1 MOL     -0.583744
     64 C21        -5.1690   -3.9010   -3.4840 c3        1 MOL     -0.099052
     65 C22        -5.1830   -3.2150   -4.8200 c         1 MOL      0.676253
     66 O11        -4.2880   -2.3620   -5.0580 o         1 MOL     -0.707630
     67 O12        -5.9580   -3.7190   -5.7020 o         1 MOL     -0.707630
     68 H28        -7.3750   -1.6600   -2.7980 hn        1 MOL      0.256487
     69 H29        -5.7310   -3.7410   -1.4890 h1        1 MOL      0.015441
     70 H30        -5.7300   -4.8320   -3.5200 hc        1 MOL      0.016826
     71 H31        -4.1360   -4.0360   -3.1680 hc        1 MOL      0.016826
     72 N7         -3.8580   -2.1320   -1.2470 n         1 MOL     -0.385171
     73 C23        -2.8670   -1.1600   -0.8560 c3        1 MOL      0.035119
     74 C24        -1.7140   -1.5830    0.1030 c         1 MOL      0.488684
     75 O13        -1.3760   -2.7800    0.3170 o         1 MOL     -0.531556
     76 H32        -3.6020   -3.0930   -1.0550 hn        1 MOL      0.246438
     77 H33        -3.3110   -0.3470   -0.2830 h1        1 MOL      0.063436
     78 H34        -2.4400   -0.7160   -1.7510 h1        1 MOL      0.063436
     79 N8         -1.2030   -0.5420    0.7560 n         1 MOL     -0.400700
     80 C25        -0.2320   -0.4110    1.8250 c3        1 MOL      0.119922
     81 C26         0.8110    0.7230    1.4970 c         1 MOL      0.417894
     82 O14         0.7990    1.4320    0.5140 o         1 MOL     -0.469611
     83 C27        -0.9970   -0.0630    3.0690 c3        1 MOL      0.232920
     84 C28        -1.8480    1.2130    2.9710 c3        1 MOL     -0.032769
     85 O15        -1.8390   -1.2040    3.2560 oh        1 MOL     -0.655829
     86 H35        -1.4150    0.3700    0.3520 hn        1 MOL      0.239272
     87 H36         0.3190   -1.3150    2.0920 h1        1 MOL     -0.001654
     88 H37        -0.3230    0.0200    3.9250 h1        1 MOL     -0.021894
     89 H38        -1.2640   -1.9640    3.4290 ho        1 MOL      0.400537
     90 H39        -1.5900    1.9240    3.7620 hc        1 MOL      0.040930
     91 H40        -1.7070    1.8650    2.1100 hc        1 MOL      0.040930
     92 H41        -2.9060    0.9780    3.0730 hc        1 MOL      0.040930
     93 N9          1.6850    0.8280    2.4770 n         1 MOL     -0.346077
     94 C29         2.8580    1.6730    2.4090 c3        1 MOL     -0.177858
     95 C30         3.9470    0.9920    1.5550 c         1 MOL      0.604158
     96 O16         4.7350    1.7270    0.9290 o         1 MOL     -0.531284
     97 C31         3.3810    2.0530    3.8030 c3        1 MOL     -0.006711
     98 C32         2.3080    2.7380    4.6460 c3        1 MOL      0.139333
     99 C33         4.4910    3.0970    3.7780 c3        1 MOL     -0.244832
    100 C34         1.5830    3.9980    4.2340 c3        1 MOL     -0.162919
    101 H42         1.7010    0.1360    3.2130 hn        1 MOL      0.275630
    102 H43         2.6130    2.5680    1.8340 h1        1 MOL      0.160656
    103 H44         3.6560    1.1130    4.3000 hc        1 MOL      0.026549
    104 H45         2.5540    2.7720    5.7110 hc        1 MOL     -0.028192
    105 H46         1.5060    2.0060    4.7040 hc        1 MOL     -0.028192
    106 H47         5.2970    2.7090    3.1600 hc        1 MOL      0.075263
    107 H48         4.1400    3.9540    3.1850 hc        1 MOL      0.075263
    108 H49         4.9630    3.4100    4.7040 hc        1 MOL      0.075263
    109 H50         2.1170    4.9100    4.4830 hc        1 MOL      0.050021
    110 H51         1.3140    4.0430    3.1790 hc        1 MOL      0.050021
    111 H52         0.6160    3.9820    4.7320 hc        1 MOL      0.050021
    112 N10         4.1040   -0.3230    1.6070 n         1 MOL     -0.284100
    113 C35         4.9920   -1.0950    0.7420 c3        1 MOL     -0.206667
    114 C36         5.8940   -2.1660    1.3680 c         1 MOL      0.627404
    115 O17         5.5770   -2.6670    2.4120 o         1 MOL     -0.514377
    116 C37         4.2310   -1.8230   -0.3780 c3        1 MOL      0.388899
    117 C38         3.0830   -2.6400    0.1620 c3        1 MOL     -0.347319
    118 O18         3.6090   -0.8650   -1.1700 oh        1 MOL     -0.579834
    119 H53         3.5180   -0.9140    2.1720 hn        1 MOL      0.206231
    120 H54         5.6110   -0.3540    0.2490 h1        1 MOL      0.070507
    121 H55         4.8630   -2.3680   -1.0740 h1        1 MOL      0.013753
    122 H56         4.3260   -0.2940   -1.4630 ho        1 MOL      0.382482
    123 H57         3.4980   -3.3370    0.8900 hc        1 MOL      0.104102
    124 H58         2.4100   -1.9740    0.7020 hc        1 MOL      0.104102
    125 H59         2.5830   -3.2830   -0.5600 hc        1 MOL      0.104102
    126 N11         7.0770   -2.4790    0.7520 n         1 MOL     -0.392485
    127 C39         8.1000   -3.4580    1.0900 c3        1 MOL     -0.220016
    128 C40         9.5700   -2.8670    0.9370 c         1 MOL      0.704068
    129 O19        10.4100   -3.1420    1.8060 o         1 MOL     -0.561954
    130 C41         8.0360   -4.7670    0.2080 c3        1 MOL      0.268723
    131 C42         8.2990   -4.6770   -1.3100 c3        1 MOL     -0.279416
    132 O20         6.7250   -5.1760    0.2900 oh        1 MOL     -0.567620
    133 H60         7.1310   -2.1160   -0.1950 hn        1 MOL      0.255827
    134 H61         8.0540   -3.7820    2.1290 h1        1 MOL      0.140678
    135 H62         8.6580   -5.6040    0.5410 h1        1 MOL      0.029326
    136 H63         6.5660   -5.1270    1.2380 ho        1 MOL      0.378063
    137 H64         9.3780   -4.6230   -1.4570 hc        1 MOL      0.095774
    138 H65         8.0350   -5.6190   -1.7860 hc        1 MOL      0.095774
    139 H66         7.8640   -3.7830   -1.7490 hc        1 MOL      0.095774
    140 N12         9.8650   -2.1410   -0.1900 n         1 MOL     -0.704345
    141 C43        11.1250   -1.4270   -0.4030 c3        1 MOL      0.366537
    142 C44        10.9700   -0.1160   -1.2420 c         1 MOL      0.263876
    143 O21        10.0390   -0.0040   -2.0790 o         1 MOL     -0.451193
    144 C45        12.1940   -2.3250   -1.0250 c3        1 MOL     -0.143021
    145 C46        13.6820   -1.8560   -0.8320 c3        1 MOL     -0.017198
    146 C47        14.6500   -2.9850   -0.9400 c3        1 MOL     -0.012453
    147 C48        16.0680   -2.3630   -0.9830 c3        1 MOL     -0.094833
    148 N13        16.4300   -2.1070   -2.4030 n4        1 MOL     -0.283478
    149 H67         9.2120   -2.1070   -0.9650 hn        1 MOL      0.320242
    150 H68        11.6390   -1.1860    0.5240 h1        1 MOL      0.009134
    151 H69        11.9370   -2.5080   -2.0650 hc        1 MOL      0.037865
    152 H70        12.0660   -3.2980   -0.5530 hc        1 MOL      0.037865
    153 H71        13.8150   -1.5650    0.2110 hc        1 MOL      0.056598
    154 H72        13.9250   -1.0980   -1.5730 hc        1 MOL      0.056598
    155 H73        14.4400   -3.6930   -1.7510 hc        1 MOL      0.052078
    156 H74        14.6310   -3.6590   -0.0750 hc        1 MOL      0.052078
    157 H75        16.7580   -3.1530   -0.6990 hx        1 MOL      0.117324
    158 H76        16.2240   -1.5320   -0.2950 hx        1 MOL      0.117324
    159 H77        15.8060   -1.4340   -2.8230 hn        1 MOL      0.269343
    160 H78        17.3350   -1.6440   -2.3520 hn        1 MOL      0.269343
    161 H79        16.5420   -2.9350   -2.9670 hn        1 MOL      0.269343
    162 N14        11.8910    0.8020   -1.0470 n         1 MOL     -0.336881
    163 C49        11.8030    2.0600   -1.7610 c3        1 MOL      0.130678
    164 C50        10.4050    2.7960   -1.7380 c         1 MOL      0.425766
    165 O22         9.9510    3.0460   -2.8620 o         1 MOL     -0.515038
    166 C51        12.9700    2.8860   -1.3790 c3        1 MOL      0.014129
    167 C52        13.3040    3.9770   -2.4430 c3        1 MOL     -0.257027
    168 C53        14.4720    4.8350   -1.9990 c         1 MOL      0.733651
    169 O23        15.1170    5.4210   -2.8640 o         1 MOL     -0.669673
    170 O24        14.8060    4.9420   -0.7930 o         1 MOL     -0.669673
    171 H80        12.6040    0.6940   -0.3340 hn        1 MOL      0.206121
    172 H81        12.0680    1.8200   -2.7940 h1        1 MOL      0.044883
    173 H82        13.8490    2.3040   -1.1340 hc        1 MOL     -0.009012
    174 H83        12.8190    3.4470   -0.4530 hc        1 MOL     -0.009012
    175 H84        12.3660    4.5170   -2.5590 hc        1 MOL      0.070428
    176 H85        13.4750    3.4530   -3.3840 hc        1 MOL      0.070428
    177 N15         9.7130    3.0480   -0.5940 n         1 MOL     -0.350187
    178 C54        10.2760    3.4260    0.6980 c3        1 MOL      0.033072
    179 H86        11.3450    3.6080    0.5900 h1        1 MOL      0.039830
    180 H87         9.7890    4.3330    1.0560 h1        1 MOL      0.039830
    181 H88        10.1170    2.6210    1.4150 h1        1 MOL      0.039830
    182 H89         8.7600    3.3180   -0.7620 hn        1 MOL      0.287538
    183 Ca1        -8.3720    2.8870   -2.2490 Ca        1 MOL      1.788673
    184 O25        -5.9440    4.1720   -3.3230 oh        1 MOL     -0.841670
    185 H90        -5.5360    4.9990   -3.5610 ho        1 MOL      0.419444
    186 H91        -5.3290    3.5000   -3.6350 ho        1 MOL      0.419444
    187 O26        -8.5910    3.7200   -4.7440 oh        1 MOL     -0.841670
    188 H92        -8.3650    4.6120   -4.9880 ho        1 MOL      0.419444
    189 H93        -8.6640    3.2480   -5.5710 ho        1 MOL      0.419444
    190 O27       -10.9720    2.6290   -2.7230 oh        1 MOL     -0.841670
    191 H94       -11.5180    1.9350   -2.3570 ho        1 MOL      0.419444
    192 H95       -11.5830    3.2490   -3.1070 ho        1 MOL      0.419444
    193 O28        -8.8480    0.9300   -4.1460 oh        1 MOL     -0.841670
    194 H96        -9.5630    0.6640   -4.7190 ho        1 MOL      0.419444
    195 H97        -8.0520    0.6400   -4.5930 ho        1 MOL      0.419444
    196 O29        -8.9260    5.5360   -2.3290 oh        1 MOL     -0.841670
    197 H98        -9.7050    5.9940   -2.6310 ho        1 MOL      0.419444
    198 H99        -8.4530    6.1720   -1.8000 ho        1 MOL      0.419444
    199 O30        -6.1660    1.5950   -1.8390 oh        1 MOL     -0.841670
    200 H100       -5.6260    1.8910   -1.1010 ho        1 MOL      0.419444
    201 H101       -5.7590    0.7720   -2.1210 ho        1 MOL      0.419444
@<TRIPOS>BOND
     1    1    2 1   
     2    1    4 1   
     3    1    5 1   
     4    1    6 1   
     5    2    3 2   
     6    2    7 1   
     7    7    8 1   
     8    7   15 1   
     9    8    9 1   
    10    8   11 1   
    11    8   16 1   
    12    9   10 2   
    13    9   19 1   
    14   11   12 1   
    15   11   17 1   
    16   11   18 1   
    17   12   13 1   
    18   12   14 1   
    19   19   20 1   
    20   19   28 1   
    21   20   21 1   
    22   20   23 1   
    23   20   29 1   
    24   21   22 2   
    25   21   41 1   
    26   23   24 1   
    27   23   30 1   
    28   23   31 1   
    29   24   25 1   
    30   24   32 1   
    31   24   33 1   
    32   25   26 1   
    33   25   34 1   
    34   25   35 1   
    35   26   27 1   
    36   26   36 1   
    37   26   37 1   
    38   27   38 1   
    39   27   39 1   
    40   27   40 1   
    41   41   42 1   
    42   41   49 1   
    43   42   43 1   
    44   42   45 1   
    45   42   50 1   
    46   43   44 2   
    47   43   53 1   
    48   45   46 1   
    49   45   51 1   
    50   45   52 1   
    51   46   47 1   
    52   46   48 1   
    53   53   54 1   
    54   53   57 1   
    55   54   55 1   
    56   54   58 1   
    57   54   59 1   
    58   55   56 2   
    59   55   60 1   
    60   60   61 1   
    61   60   68 1   
    62   61   62 1   
    63   61   64 1   
    64   61   69 1   
    65   62   63 2   
    66   62   72 1   
    67   64   65 1   
    68   64   70 1   
    69   64   71 1   
    70   65   66 1   
    71   65   67 1   
    72   72   73 1   
    73   72   76 1   
    74   73   74 1   
    75   73   77 1   
    76   73   78 1   
    77   74   75 2   
    78   74   79 1   
    79   79   80 1   
    80   79   86 1   
    81   80   81 1   
    82   80   83 1   
    83   80   87 1   
    84   81   82 2   
    85   81   93 1   
    86   83   84 1   
    87   83   85 1   
    88   83   88 1   
    89   84   90 1   
    90   84   91 1   
    91   84   92 1   
    92   85   89 1   
    93   93   94 1   
    94   93  101 1   
    95   94   95 1   
    96   94   97 1   
    97   94  102 1   
    98   95   96 2   
    99   95  112 1   
   100   97   98 1   
   101   97   99 1   
   102   97  103 1   
   103   98  100 1   
   104   98  104 1   
   105   98  105 1   
   106   99  106 1   
   107   99  107 1   
   108   99  108 1   
   109  100  109 1   
   110  100  110 1   
   111  100  111 1   
   112  112  113 1   
   113  112  119 1   
   114  113  114 1   
   115  113  116 1   
   116  113  120 1   
   117  114  115 2   
   118  114  126 1   
   119  116  117 1   
   120  116  118 1   
   121  116  121 1   
   122  117  123 1   
   123  117  124 1   
   124  117  125 1   
   125  118  122 1   
   126  126  127 1   
   127  126  133 1   
   128  127  128 1   
   129  127  130 1   
   130  127  134 1   
   131  128  129 2   
   132  128  140 1   
   133  130  131 1   
   134  130  132 1   
   135  130  135 1   
   136  131  137 1   
   137  131  138 1   
   138  131  139 1   
   139  132  136 1   
   140  140  141 1   
   141  140  149 1   
   142  141  142 1   
   143  141  144 1   
   144  141  150 1   
   145  142  143 2   
   146  142  162 1   
   147  144  145 1   
   148  144  151 1   
   149  144  152 1   
   150  145  146 1   
   151  145  153 1   
   152  145  154 1   
   153  146  147 1   
   154  146  155 1   
   155  146  156 1   
   156  147  148 1   
   157  147  157 1   
   158  147  158 1   
   159  148  159 1   
   160  148  160 1   
   161  148  161 1   
   162  162  163 1   
   163  162  171 1   
   164  163  164 1   
   165  163  166 1   
   166  163  172 1   
   167  164  165 2   
   168  164  177 1   
   169  166  167 1   
   170  166  173 1   
   171  166  174 1   
   172  167  168 1   
   173  167  175 1   
   174  167  176 1   
   175  168  169 1   
   176  168  170 1   
   177  177  178 1   
   178  177  182 1   
   179  178  179 1   
   180  178  180 1   
   181  178  181 1   
   182  184  185 1   
   183  184  186 1   
   184  187  188 1   
   185  187  189 1   
   186  190  191 1   
   187  190  192 1   
   188  193  194 1   
   189  193  195 1   
   190  196  197 1   
   191  196  198 1   
   192  199  200 1   
   193  199  201 1   
@<TRIPOS>SUBSTRUCTURE
     1 MOL         1 TEMP              0 ****  ****    0 ROOT
