@<TRIPOS>MOLECULE
MOL
  198   191     1     0     0
SMALL
resp


@<TRIPOS>ATOM
      1 C1          4.0490   -5.4540    1.7500 c3        1 MOL     -0.277208
      2 C2          3.5560   -4.2150    0.9570 c         1 MOL      0.717132
      3 O1          4.3810   -3.6070    0.3830 o         1 MOL     -0.587656
      4 H1          3.2530   -6.1970    1.7930 hc        1 MOL      0.067944
      5 H2          4.9190   -5.8820    1.2520 hc        1 MOL      0.067944
      6 H3          4.3200   -5.1540    2.7620 hc        1 MOL      0.067944
      7 N1          2.2110   -3.9140    0.9320 n         1 MOL     -0.581904
      8 C3          1.0760   -4.4530    1.6280 c3        1 MOL      0.067505
      9 C4          0.2470   -5.4390    0.7670 c         1 MOL      0.565958
     10 O2         -0.0370   -6.4790    1.3150 o         1 MOL     -0.598725
     11 C5          0.3310   -3.2740    2.1780 c3        1 MOL     -0.305960
     12 C6          1.1970   -2.2340    2.7780 c         1 MOL      0.766171
     13 O3          1.9430   -2.6060    3.7490 o         1 MOL     -0.758102
     14 O4          1.1620   -1.0650    2.4270 o         1 MOL     -0.758102
     15 H4          2.0640   -3.0720    0.3930 hn        1 MOL      0.349409
     16 H5          1.3550   -5.0250    2.5120 h1        1 MOL      0.081942
     17 H6         -0.2590   -3.6480    3.0240 hc        1 MOL      0.095702
     18 H7         -0.3590   -2.8630    1.4300 hc        1 MOL      0.095702
     19 N2         -0.0210   -5.1320   -0.4600 n         1 MOL     -0.038386
     20 C7         -0.5090   -6.0460   -1.5080 c3        1 MOL     -0.334686
     21 C8         -1.9590   -5.8350   -2.0090 c         1 MOL      0.412639
     22 O5         -2.3970   -6.4120   -2.9900 o         1 MOL     -0.534923
     23 C9          0.4420   -5.9720   -2.6730 c3        1 MOL      0.333301
     24 C10         0.3020   -4.6940   -3.6130 c3        1 MOL      0.087289
     25 C11         1.9610   -6.1360   -2.2370 c3        1 MOL     -0.291049
     26 C12         0.5830   -4.9280   -5.0880 c3        1 MOL     -0.294330
     27 H8          0.3660   -4.2780   -0.8190 hn        1 MOL      0.035802
     28 H9         -0.4280   -7.0820   -1.1840 h1        1 MOL      0.142494
     29 H10         0.2340   -6.8600   -3.2700 hc        1 MOL     -0.035300
     30 H11         1.0290   -3.9430   -3.2750 hc        1 MOL      0.047406
     31 H12        -0.6670   -4.2430   -3.4090 hc        1 MOL      0.047406
     32 H13         2.4460   -6.3810   -3.1880 hc        1 MOL      0.049033
     33 H14         2.4350   -5.2170   -1.8790 hc        1 MOL      0.049033
     34 H15         2.0640   -6.8890   -1.4570 hc        1 MOL      0.049033
     35 H16        -0.0750   -5.6930   -5.4800 hc        1 MOL      0.056000
     36 H17         0.4860   -3.9770   -5.6060 hc        1 MOL      0.056000
     37 H18         1.6280   -5.2350   -5.2150 hc        1 MOL      0.056000
     38 N3         -2.6990   -4.8900   -1.4690 n         1 MOL     -0.118524
     39 C13        -4.1340   -4.6640   -1.8180 c3        1 MOL      0.143983
     40 C14        -4.8990   -3.9730   -0.7180 c         1 MOL      0.366356
     41 O6         -4.2470   -3.6380    0.3170 o         1 MOL     -0.520728
     42 C15        -4.1520   -3.7610   -2.9940 c3        1 MOL     -0.235910
     43 C16        -5.4680   -3.6990   -3.8150 c         1 MOL      0.712736
     44 O7         -6.3310   -4.5500   -3.6570 o         1 MOL     -0.714034
     45 O8         -5.6850   -2.6370   -4.4630 o         1 MOL     -0.714034
     46 H19        -2.3320   -4.3700   -0.6740 hn        1 MOL      0.042332
     47 H20        -4.6560   -5.5750   -2.1110 h1        1 MOL      0.015452
     48 H21        -3.2890   -3.9930   -3.6150 hc        1 MOL      0.041964
     49 H22        -3.9610   -2.7490   -2.6500 hc        1 MOL      0.041964
     50 N4         -6.2450   -3.8310   -0.8290 n         1 MOL     -0.347068
     51 C17        -7.0870   -3.4250    0.3090 c3        1 MOL     -0.030017
     52 C18        -6.9210   -1.9960    0.6670 c         1 MOL      0.599072
     53 O9         -6.4000   -1.2010   -0.0630 o         1 MOL     -0.501704
     54 H23        -6.6750   -4.1870   -1.6680 hn        1 MOL      0.295845
     55 H24        -7.0060   -4.0810    1.1660 h1        1 MOL      0.069721
     56 H25        -8.1020   -3.5930   -0.0270 h1        1 MOL      0.069721
     57 N5         -7.6520   -1.5510    1.7470 n         1 MOL     -0.575767
     58 C19        -7.6670   -0.1490    2.2310 c3        1 MOL      0.403198
     59 C20        -8.9140    0.5500    1.5250 c         1 MOL      0.421680
     60 O10        -9.9780    0.3270    2.0850 o         1 MOL     -0.466980
     61 C21        -7.7070   -0.0480    3.7630 c3        1 MOL     -0.439613
     62 C22        -8.7710   -0.9470    4.4500 c         1 MOL      0.788086
     63 O11        -8.4630   -2.1450    4.6990 o         1 MOL     -0.739443
     64 O12        -9.8930   -0.5010    4.8550 o         1 MOL     -0.739443
     65 H26        -8.0760   -2.2190    2.3720 hn        1 MOL      0.254291
     66 H27        -6.7450    0.2830    1.8530 h1        1 MOL     -0.030223
     67 H28        -7.9080    0.9780    4.0570 hc        1 MOL      0.067397
     68 H29        -6.7280   -0.2840    4.1840 hc        1 MOL      0.067397
     69 N6         -8.7720    1.4280    0.4450 n         1 MOL     -0.541506
     70 C23        -7.5160    1.9870    0.0260 c3        1 MOL      0.190851
     71 C24        -7.6950    3.1880   -0.8620 c         1 MOL      0.530535
     72 O13        -8.6700    3.3550   -1.5720 o         1 MOL     -0.573387
     73 H30        -9.6400    1.7130    0.0190 hn        1 MOL      0.284415
     74 H31        -6.9530    1.2490   -0.5460 h1        1 MOL      0.061376
     75 H32        -6.9630    2.1520    0.9460 h1        1 MOL      0.061376
     76 N7         -6.8400    4.1610   -0.9350 n         1 MOL     -0.430654
     77 C25        -5.5710    4.3950   -0.4470 c3        1 MOL      0.051251
     78 C26        -4.4560    3.2790   -0.6450 c         1 MOL      0.532841
     79 O14        -4.6000    2.1230   -0.2860 o         1 MOL     -0.492670
     80 C27        -5.5780    5.0650    0.9540 c3        1 MOL      0.007246
     81 C28        -6.4740    6.2980    1.0500 c3        1 MOL     -0.396984
     82 C29        -6.0390    7.2860    2.1150 c         1 MOL      0.799605
     83 N8         -5.8630    8.5690    1.8280 n         1 MOL     -0.873991
     84 O15        -5.7070    6.9240    3.2060 o         1 MOL     -0.570345
     85 H33        -7.1830    4.8200   -1.6190 hn        1 MOL      0.265923
     86 H34        -5.2030    5.2060   -1.0810 h1        1 MOL      0.045980
     87 H35        -4.5780    5.4440    1.1620 hc        1 MOL      0.046943
     88 H36        -5.8150    4.3010    1.6980 hc        1 MOL      0.046943
     89 H37        -7.5170    6.0180    1.2170 hc        1 MOL      0.091982
     90 H38        -6.3140    6.8130    0.1020 hc        1 MOL      0.091982
     91 H39        -6.1190    8.8520    0.8920 hn        1 MOL      0.374201
     92 H40        -5.3870    9.1880    2.4720 hn        1 MOL      0.374201
     93 N9         -3.2450    3.7440   -0.9430 n         1 MOL     -0.552428
     94 C30        -1.9690    2.9290   -0.9020 c3        1 MOL     -0.073431
     95 C31        -1.7760    1.9910   -2.1340 c         1 MOL      0.744235
     96 O16        -2.3750    2.3140   -3.2160 o         1 MOL     -0.541706
     97 C32        -0.8030    3.9280   -0.7080 c3        1 MOL      0.379212
     98 C33        -1.1700    5.1080    0.2140 c3        1 MOL     -0.322170
     99 C34        -0.2790    4.5000   -2.1200 c3        1 MOL     -0.322170
    100 H41        -3.2320    4.7060   -1.2450 hn        1 MOL      0.275055
    101 H42        -1.9210    2.3000   -0.0180 h1        1 MOL      0.091275
    102 H43        -0.0020    3.3830   -0.2020 hc        1 MOL     -0.023630
    103 H44        -1.6360    4.7390    1.1230 hc        1 MOL      0.068147
    104 H45        -0.2750    5.6420    0.5210 hc        1 MOL      0.068147
    105 H46        -1.7570    5.7770   -0.4110 hc        1 MOL      0.068147
    106 H47         0.1250    3.6990   -2.7500 hc        1 MOL      0.068147
    107 H48        -1.0660    5.0220   -2.6640 hc        1 MOL      0.068147
    108 H49         0.4640    5.2450   -1.8530 hc        1 MOL      0.068147
    109 N10        -0.9230    0.9460   -2.1050 n         1 MOL     -0.738318
    110 C35        -0.3990    0.1410   -3.2160 c3        1 MOL      0.452087
    111 C36         1.1620    0.1900   -3.4010 c         1 MOL      0.361132
    112 O17         1.6920   -0.7390   -4.0560 o         1 MOL     -0.503181
    113 C37        -1.0130   -1.2870   -3.0890 c3        1 MOL     -0.431771
    114 C38        -0.6940   -2.0290   -1.7790 c         1 MOL      0.798231
    115 N11        -1.5390   -2.3070   -0.8600 n         1 MOL     -0.758852
    116 O18         0.4600   -2.3050   -1.4670 o         1 MOL     -0.628796
    117 H50        -0.4280    0.8010   -1.2420 hn        1 MOL      0.315804
    118 H51        -0.7790    0.6160   -4.1150 h1        1 MOL      0.020190
    119 H52        -0.6490   -1.9470   -3.8720 hc        1 MOL      0.121207
    120 H53        -2.0970   -1.2110   -3.1850 hc        1 MOL      0.121207
    121 H54        -2.4780   -1.9520   -0.9010 hn        1 MOL      0.358507
    122 H55        -1.3330   -2.6770    0.0650 hn        1 MOL      0.358507
    123 N12         1.8890    1.1650   -2.8270 n         1 MOL     -0.419057
    124 C39         3.3670    1.2280   -2.9320 c3        1 MOL      0.357133
    125 C40         3.9500    1.7850   -1.5730 c         1 MOL      0.360827
    126 O19         3.2570    2.2240   -0.6620 o         1 MOL     -0.483972
    127 C41         3.6050    2.0560   -4.1920 c3        1 MOL     -0.156262
    128 C42         3.3930    3.5890   -4.0780 ca        1 MOL      0.178999
    129 C43         4.5270    4.4030   -3.7240 ca        1 MOL     -0.259304
    130 C44         2.2740    4.2570   -4.6300 ca        1 MOL     -0.259304
    131 C45         4.2860    5.7840   -3.5180 ca        1 MOL     -0.234891
    132 C46         2.0620    5.6470   -4.4240 ca        1 MOL     -0.234891
    133 C47         3.0990    6.3730   -3.8710 ca        1 MOL      0.352391
    134 O20         2.8750    7.7030   -3.6630 oh        1 MOL     -0.497975
    135 H56         1.4810    1.7900   -2.1540 hn        1 MOL      0.205211
    136 H57         3.7720    0.2330   -3.1120 h1        1 MOL     -0.003597
    137 H58         2.8000    1.8200   -4.8980 hc        1 MOL      0.031424
    138 H59         4.5620    1.7450   -4.6010 hc        1 MOL      0.031424
    139 H60         5.5010    3.9480   -3.5760 ha        1 MOL      0.173494
    140 H61         1.4200    3.6730   -4.9300 ha        1 MOL      0.173494
    141 H62         5.0630    6.3980   -3.0900 ha        1 MOL      0.149361
    142 H63         1.1060    6.1010   -4.6340 ha        1 MOL      0.149361
    143 H64         1.9820    8.0030   -3.8930 ho        1 MOL      0.339327
    144 N13         5.3120    1.7580   -1.5200 n         1 MOL     -0.370098
    145 C48         6.1390    1.8030   -0.2410 c3        1 MOL     -0.114684
    146 C49         7.0670    0.6110   -0.1910 c         1 MOL      0.308896
    147 O21         7.9790    0.5580   -1.0420 o         1 MOL     -0.510412
    148 C50         7.0450    3.0080   -0.1760 c3        1 MOL     -0.033270
    149 C51         6.3690    4.2550    0.3190 c3        1 MOL     -0.183880
    150 C52         7.3850    5.2700    0.6900 c         1 MOL      0.632708
    151 O22         8.1160    5.0850    1.7340 o         1 MOL     -0.718208
    152 O23         7.3270    6.4050    0.1520 o         1 MOL     -0.718208
    153 H65         5.7860    1.4550   -2.3660 hn        1 MOL      0.251423
    154 H66         5.4360    1.8700    0.5900 h1        1 MOL      0.209052
    155 H67         7.4540    3.2050   -1.1630 hc        1 MOL      0.059917
    156 H68         7.9200    2.7650    0.4120 hc        1 MOL      0.059917
    157 H69         5.8100    4.0020    1.2070 hc        1 MOL      0.044182
    158 H70         5.7200    4.6700   -0.4640 hc        1 MOL      0.044182
    159 N14         6.8380   -0.3030    0.7410 n         1 MOL      0.086207
    160 C53         7.6200   -1.5210    0.8140 c3        1 MOL     -0.266514
    161 C54         7.5650   -2.4710   -0.4500 c         1 MOL      0.423345
    162 O24         8.4810   -3.2590   -0.6850 o         1 MOL     -0.519359
    163 C55         7.2040   -2.3270    2.0190 c3        1 MOL      0.038693
    164 C56         7.5670   -1.7630    3.3980 c3        1 MOL     -0.223925
    165 C57         6.6940   -0.6000    3.8680 c         1 MOL      0.697515
    166 O25         5.4950   -0.7910    4.3460 o         1 MOL     -0.723390
    167 O26         7.1160    0.5860    3.8870 o         1 MOL     -0.723390
    168 H71         6.0070   -0.2240    1.3130 hn        1 MOL      0.084827
    169 H72         8.6830   -1.3020    0.8760 h1        1 MOL      0.151789
    170 H73         7.7360   -3.2760    1.9830 hc        1 MOL      0.030464
    171 H74         6.1320   -2.5430    2.0510 hc        1 MOL      0.030464
    172 H75         8.6340   -1.5460    3.5190 hc        1 MOL      0.058564
    173 H76         7.4060   -2.5360    4.1420 hc        1 MOL      0.058564
    174 N15         6.4440   -2.4060   -1.2220 n         1 MOL     -0.092482
    175 C58         6.3850   -2.7880   -2.7130 c3        1 MOL     -0.261093
    176 H77         7.2650   -2.3980   -3.2230 h1        1 MOL      0.108234
    177 H78         6.3610   -3.8740   -2.8100 h1        1 MOL      0.108234
    178 H79         5.4880   -2.3630   -3.1620 h1        1 MOL      0.108234
    179 H80         5.6470   -1.8920   -0.8690 hn        1 MOL      0.137192
    180 Ca1         2.9980   -0.1170    4.1880 Ca        1 MOL      1.669073
    181 O27         4.7070    1.6910    2.8900 oh        1 MOL     -0.805241
    182 H81         4.7560    2.6270    3.0740 ho        1 MOL      0.404344
    183 H82         5.3840    1.3020    3.4410 ho        1 MOL      0.404344
    184 O28         3.8500    1.5210    6.0800 oh        1 MOL     -0.805241
    185 H83         4.2090    1.3640    6.9560 ho        1 MOL      0.404344
    186 H84         3.9690    2.4540    5.9340 ho        1 MOL      0.404344
    187 O29         0.8950    0.4150    5.7210 oh        1 MOL     -0.805241
    188 H85         0.6100   -0.3350    6.2440 ho        1 MOL      0.404344
    189 H86         0.2210    1.0760    5.8460 ho        1 MOL      0.404344
    190 O30         1.8000    1.8580    3.0280 oh        1 MOL     -0.805241
    191 H87         0.8770    2.0390    3.1880 ho        1 MOL      0.404344
    192 H88         2.0720    2.5220    2.3920 ho        1 MOL      0.404344
    193 O31         3.0270   -1.9590    6.2100 oh        1 MOL     -0.805241
    194 H89         2.8020   -2.2150    7.1080 ho        1 MOL      0.404344
    195 H90         2.7730   -2.7150    5.6760 ho        1 MOL      0.404344
    196 O32         3.8930   -0.7880    1.6900 oh        1 MOL     -0.805241
    197 H91         3.6330   -0.2570    0.9430 ho        1 MOL      0.404344
    198 H92         3.9970   -1.6750    1.3270 ho        1 MOL      0.404344
@<TRIPOS>BOND
     1    1    2 1   
     2    1    4 1   
     3    1    5 1   
     4    1    6 1   
     5    2    3 2   
     6    2    7 1   
     7    7    8 1   
     8    7   15 1   
     9    8    9 1   
    10    8   11 1   
    11    8   16 1   
    12    9   10 2   
    13    9   19 1   
    14   11   12 1   
    15   11   17 1   
    16   11   18 1   
    17   12   13 1   
    18   12   14 1   
    19   19   20 1   
    20   19   27 1   
    21   20   21 1   
    22   20   23 1   
    23   20   28 1   
    24   21   22 2   
    25   21   38 1   
    26   23   24 1   
    27   23   25 1   
    28   23   29 1   
    29   24   26 1   
    30   24   30 1   
    31   24   31 1   
    32   25   32 1   
    33   25   33 1   
    34   25   34 1   
    35   26   35 1   
    36   26   36 1   
    37   26   37 1   
    38   38   39 1   
    39   38   46 1   
    40   39   40 1   
    41   39   42 1   
    42   39   47 1   
    43   40   41 2   
    44   40   50 1   
    45   42   43 1   
    46   42   48 1   
    47   42   49 1   
    48   43   44 1   
    49   43   45 1   
    50   50   51 1   
    51   50   54 1   
    52   51   52 1   
    53   51   55 1   
    54   51   56 1   
    55   52   53 2   
    56   52   57 1   
    57   57   58 1   
    58   57   65 1   
    59   58   59 1   
    60   58   61 1   
    61   58   66 1   
    62   59   60 2   
    63   59   69 1   
    64   61   62 1   
    65   61   67 1   
    66   61   68 1   
    67   62   63 1   
    68   62   64 1   
    69   69   70 1   
    70   69   73 1   
    71   70   71 1   
    72   70   74 1   
    73   70   75 1   
    74   71   72 2   
    75   71   76 1   
    76   76   77 1   
    77   76   85 1   
    78   77   78 1   
    79   77   80 1   
    80   77   86 1   
    81   78   79 2   
    82   78   93 1   
    83   80   81 1   
    84   80   87 1   
    85   80   88 1   
    86   81   82 1   
    87   81   89 1   
    88   81   90 1   
    89   82   83 1   
    90   82   84 2   
    91   83   91 1   
    92   83   92 1   
    93   93   94 1   
    94   93  100 1   
    95   94   95 1   
    96   94   97 1   
    97   94  101 1   
    98   95   96 2   
    99   95  109 1   
   100   97   98 1   
   101   97   99 1   
   102   97  102 1   
   103   98  103 1   
   104   98  104 1   
   105   98  105 1   
   106   99  106 1   
   107   99  107 1   
   108   99  108 1   
   109  109  110 1   
   110  109  117 1   
   111  110  111 1   
   112  110  113 1   
   113  110  118 1   
   114  111  112 2   
   115  111  123 1   
   116  113  114 1   
   117  113  119 1   
   118  113  120 1   
   119  114  115 1   
   120  114  116 2   
   121  115  121 1   
   122  115  122 1   
   123  123  124 1   
   124  123  135 1   
   125  124  125 1   
   126  124  127 1   
   127  124  136 1   
   128  125  126 2   
   129  125  144 1   
   130  127  128 1   
   131  127  137 1   
   132  127  138 1   
   133  128  129 ar  
   134  128  130 ar  
   135  129  131 ar  
   136  129  139 1   
   137  130  132 ar  
   138  130  140 1   
   139  131  133 ar  
   140  131  141 1   
   141  132  133 ar  
   142  132  142 1   
   143  133  134 1   
   144  134  143 1   
   145  144  145 1   
   146  144  153 1   
   147  145  146 1   
   148  145  148 1   
   149  145  154 1   
   150  146  147 2   
   151  146  159 1   
   152  148  149 1   
   153  148  155 1   
   154  148  156 1   
   155  149  150 1   
   156  149  157 1   
   157  149  158 1   
   158  150  151 1   
   159  150  152 1   
   160  159  160 1   
   161  159  168 1   
   162  160  161 1   
   163  160  163 1   
   164  160  169 1   
   165  161  162 2   
   166  161  174 1   
   167  163  164 1   
   168  163  170 1   
   169  163  171 1   
   170  164  165 1   
   171  164  172 1   
   172  164  173 1   
   173  165  166 1   
   174  165  167 1   
   175  174  175 1   
   176  174  179 1   
   177  175  176 1   
   178  175  177 1   
   179  175  178 1   
   180  181  182 1   
   181  181  183 1   
   182  184  185 1   
   183  184  186 1   
   184  187  188 1   
   185  187  189 1   
   186  190  191 1   
   187  190  192 1   
   188  193  194 1   
   189  193  195 1   
   190  196  197 1   
   191  196  198 1   
@<TRIPOS>SUBSTRUCTURE
     1 MOL         1 TEMP              0 ****  ****    0 ROOT
