@<TRIPOS>MOLECULE
MOL
  184   179     1     0     0
SMALL
resp


@<TRIPOS>ATOM
      1 C1          1.5960   -2.2440    4.2700 c3        1 MOL     -0.248032
      2 C2          2.6720   -1.8190    3.3100 c         1 MOL      0.775289
      3 O1          2.5050   -1.9010    2.1340 o         1 MOL     -0.645068
      4 H1          2.0380   -2.8350    5.0720 hc        1 MOL      0.062971
      5 H2          1.1160   -1.3610    4.6920 hc        1 MOL      0.062971
      6 H3          0.8540   -2.8450    3.7430 hc        1 MOL      0.062971
      7 N1          3.8060   -1.3670    3.7700 n         1 MOL     -0.504083
      8 C3          4.9370   -0.8140    2.9640 c3        1 MOL      0.016481
      9 C4          5.5800   -1.9170    2.0590 c         1 MOL      0.588487
     10 O2          6.5300   -1.6520    1.3310 o         1 MOL     -0.546338
     11 C5          5.9350   -0.1590    3.9300 c3        1 MOL     -0.309362
     12 C6          6.5650   -0.9590    5.0470 c         1 MOL      0.828054
     13 O3          6.7070   -2.1730    4.8830 o         1 MOL     -0.762496
     14 O4          7.0570   -0.3280    6.0090 o         1 MOL     -0.762496
     15 H4          3.8030   -1.2650    4.7740 hn        1 MOL      0.254050
     16 H5          4.4980   -0.0560    2.3000 h1        1 MOL      0.085535
     17 H6          5.3710    0.6990    4.3040 hc        1 MOL      0.065974
     18 H7          6.7670    0.2620    3.3670 hc        1 MOL      0.065974
     19 N2          5.1400   -3.1730    2.1940 n         1 MOL     -0.160543
     20 C7          5.5680   -4.3070    1.4130 c3        1 MOL      0.102329
     21 C8          5.4730   -4.0810   -0.0880 c         1 MOL      0.551097
     22 O5          6.4670   -4.2070   -0.8370 o         1 MOL     -0.549770
     23 C9          6.8580   -4.7510    1.9740 c3        1 MOL     -0.357364
     24 H8          4.3960   -3.3300    2.8570 hn        1 MOL      0.141650
     25 H9          4.8810   -5.1150    1.6480 h1        1 MOL      0.081091
     26 H10         7.6980   -4.0810    1.7380 hc        1 MOL      0.090637
     27 H11         6.7810   -4.8290    3.0550 hc        1 MOL      0.090637
     28 H12         7.1030   -5.7280    1.5600 hc        1 MOL      0.090637
     29 N3          4.2730   -3.6360   -0.4790 n         1 MOL     -0.168098
     30 C10         3.9570   -3.1540   -1.8360 c3        1 MOL     -0.162549
     31 C11         4.7910   -2.0070   -2.4400 c         1 MOL      0.302245
     32 O6          4.9940   -1.9720   -3.6560 o         1 MOL     -0.552450
     33 C12         3.9480   -4.4310   -2.7620 c3        1 MOL     -0.137113
     34 C13         3.2420   -5.6730   -2.2680 c         1 MOL      0.640273
     35 O7          3.9520   -6.6030   -1.7290 o         1 MOL     -0.710026
     36 O8          2.0280   -5.7330   -2.3980 o         1 MOL     -0.710026
     37 H13         3.4740   -3.7510    0.1300 hn        1 MOL      0.099915
     38 H14         2.9580   -2.8120   -1.5880 h1        1 MOL      0.126736
     39 H15         4.9860   -4.7270   -2.9360 hc        1 MOL      0.046300
     40 H16         3.4790   -4.1990   -3.7280 hc        1 MOL      0.046300
     41 N4          5.4010   -1.2340   -1.6190 n         1 MOL      0.288132
     42 C14         6.4020   -0.2140   -2.0050 c3        1 MOL     -0.249363
     43 C15         5.8590    1.1550   -2.4430 c         1 MOL      0.578563
     44 O9          6.6420    2.0700   -2.8540 o         1 MOL     -0.581515
     45 H17         5.3550   -1.4010   -0.6260 hn        1 MOL     -0.092472
     46 H18         6.9020   -0.5680   -2.9010 h1        1 MOL      0.113129
     47 H19         7.1730   -0.0770   -1.2560 h1        1 MOL      0.113129
     48 N5          4.5250    1.2900   -2.3720 n         1 MOL     -0.415546
     49 C16         3.8300    2.4700   -2.9000 c3        1 MOL      0.233293
     50 C17         3.7610    3.6660   -1.9790 c         1 MOL      0.510477
     51 O10         3.7480    3.5740   -0.7400 o         1 MOL     -0.552865
     52 C18         2.4560    2.0340   -3.4270 c3        1 MOL     -0.155125
     53 C19         1.6180    3.1300   -4.1650 c         1 MOL      0.557506
     54 N6          0.6430    3.7520   -3.5060 n         1 MOL     -0.710172
     55 O11         1.9720    3.4250   -5.3020 o         1 MOL     -0.577582
     56 H20         4.1130    0.6290   -1.7340 hn        1 MOL      0.228416
     57 H21         4.4430    2.8420   -3.7250 h1        1 MOL     -0.005665
     58 H22         1.8890    1.5710   -2.6110 hc        1 MOL      0.054202
     59 H23         2.7670    1.2240   -4.0920 hc        1 MOL      0.054202
     60 H24         0.4830    3.5060   -2.5420 hn        1 MOL      0.348896
     61 H25         0.0940    4.4780   -3.9460 hn        1 MOL      0.348896
     62 N7          3.7800    4.8730   -2.5400 n         1 MOL     -0.405520
     63 C20         3.7460    6.1720   -1.8050 c3        1 MOL     -0.218134
     64 C21         2.3310    6.5480   -1.4590 c         1 MOL      0.653274
     65 O12         1.3340    6.2210   -2.0670 o         1 MOL     -0.522363
     66 H26         3.5320    4.8730   -3.5180 hn        1 MOL      0.286100
     67 H27         4.2580    6.8300   -2.5050 h1        1 MOL      0.126223
     68 H28         4.3770    6.0070   -0.9350 h1        1 MOL      0.126223
     69 N8          2.1930    7.2520   -0.4000 n         1 MOL     -0.394063
     70 C22         0.9130    7.9060    0.0020 c3        1 MOL     -0.381995
     71 C23        -0.1320    6.9820    0.6530 c         1 MOL      0.575125
     72 O13        -1.2040    7.4690    1.0990 o         1 MOL     -0.569407
     73 C24         1.1420    9.2180    0.7520 c3        1 MOL      0.652967
     74 C25         1.6750    9.0270    2.1400 c3        1 MOL     -0.327795
     75 O14         1.9720   10.0820    0.0410 oh        1 MOL     -0.669363
     76 H29         3.0300    7.6990   -0.0510 hn        1 MOL      0.220170
     77 H30         0.4380    8.2080   -0.9340 h1        1 MOL      0.157151
     78 H31         0.1740    9.7100    0.8830 h1        1 MOL     -0.011647
     79 H32         2.8380    9.7310    0.2170 ho        1 MOL      0.394752
     80 H33         0.8520    9.0220    2.8630 hc        1 MOL      0.064476
     81 H34         2.2510    8.1000    2.1000 hc        1 MOL      0.064476
     82 H35         2.3880    9.8390    2.2760 hc        1 MOL      0.064476
     83 N9          0.2590    5.7100    0.7670 n         1 MOL     -0.259171
     84 C26        -0.6700    4.5890    1.2260 c3        1 MOL     -0.174075
     85 C27        -0.6740    3.3860    0.3010 c         1 MOL      0.579234
     86 O15         0.3130    3.1520   -0.3930 o         1 MOL     -0.420854
     87 C28        -0.4230    4.1690    2.6430 c3        1 MOL      0.133094
     88 C29         0.9470    3.4750    2.9060 c3        1 MOL      0.079653
     89 C30        -0.8190    5.3950    3.5750 c3        1 MOL     -0.376385
     90 C31         0.9950    2.7510    4.2530 c3        1 MOL     -0.296174
     91 H36         1.1110    5.3720    0.3540 hn        1 MOL      0.174260
     92 H37        -1.6670    5.0210    1.2100 h1        1 MOL      0.106306
     93 H38        -1.2250    3.4590    2.8320 hc        1 MOL      0.009103
     94 H39         1.6160    4.3120    3.1160 hc        1 MOL      0.061374
     95 H40         1.2740    2.8120    2.1080 hc        1 MOL      0.061374
     96 H41        -0.9470    5.0800    4.6150 hc        1 MOL      0.103919
     97 H42         0.0200    6.0850    3.6830 hc        1 MOL      0.103919
     98 H43        -1.7370    5.8680    3.2300 hc        1 MOL      0.103919
     99 H44         1.9150    2.1730    4.1580 hc        1 MOL      0.056972
    100 H45         0.9080    3.4410    5.0930 hc        1 MOL      0.056972
    101 H46         0.1200    2.1070    4.2460 hc        1 MOL      0.056972
    102 N10        -1.7420    2.5520    0.2550 n         1 MOL     -0.585879
    103 C32        -1.8850    1.4020   -0.5930 c3        1 MOL      0.083800
    104 C33        -3.3020    0.9140   -0.9710 c         1 MOL      0.614968
    105 O16        -3.4400   -0.0450   -1.7140 o         1 MOL     -0.560061
    106 C34        -1.1070    0.2380   -0.0020 c3        1 MOL     -0.039118
    107 C35        -0.4650   -0.6810   -1.0510 c         1 MOL      0.746106
    108 O17         0.4150   -0.1780   -1.7350 o         1 MOL     -0.734326
    109 O18        -0.7760   -1.8810   -1.1200 o         1 MOL     -0.734326
    110 H47        -2.5560    2.9700    0.6920 hn        1 MOL      0.282062
    111 H48        -1.3120    1.7050   -1.4730 h1        1 MOL      0.029106
    112 H49        -1.6970   -0.2990    0.7430 hc        1 MOL      0.020998
    113 H50        -0.2510    0.5300    0.5960 hc        1 MOL      0.020998
    114 N11        -4.4300    1.4880   -0.4880 n         1 MOL     -0.573947
    115 C36        -5.8180    1.0380   -0.7030 c3        1 MOL      0.246473
    116 C37        -6.2220   -0.0300    0.3670 c         1 MOL      0.324081
    117 O19        -6.0390    0.2080    1.5830 o         1 MOL     -0.473813
    118 C38        -6.7810    2.1870   -0.8140 c3        1 MOL     -0.071499
    119 C39        -8.1330    1.8150   -1.2930 ca        1 MOL      0.073648
    120 C40        -8.3690    1.6750   -2.6290 ca        1 MOL     -0.172191
    121 C41        -9.1550    1.5000   -0.3730 ca        1 MOL     -0.172191
    122 C42        -9.5590    1.0500   -3.0370 ca        1 MOL     -0.049996
    123 C43       -10.3090    0.8520   -0.7720 ca        1 MOL     -0.049996
    124 C44       -10.4780    0.6280   -2.1510 ca        1 MOL     -0.178106
    125 H51        -4.2480    2.2590    0.1340 hn        1 MOL      0.272465
    126 H52        -5.7520    0.5910   -1.6950 h1        1 MOL      0.041686
    127 H53        -6.4130    3.0200   -1.4090 hc        1 MOL      0.043263
    128 H54        -6.8600    2.5360    0.2120 hc        1 MOL      0.043263
    129 H55        -7.6100    1.9720   -3.3310 ha        1 MOL      0.122277
    130 H56        -8.8400    1.6070    0.6550 ha        1 MOL      0.122277
    131 H57        -9.6460    0.9920   -4.1190 ha        1 MOL      0.099203
    132 H58       -10.9760    0.3810   -0.0650 ha        1 MOL      0.099203
    133 H59       -11.3220    0.0220   -2.4720 ha        1 MOL      0.109543
    134 N12        -6.8750   -1.1200   -0.0250 n         1 MOL     -0.116099
    135 C45        -7.4930   -2.1020    0.9540 c3        1 MOL     -0.106587
    136 C46        -6.5670   -2.6730    2.0760 c         1 MOL      0.320473
    137 O20        -7.0960   -2.9250    3.1290 o         1 MOL     -0.455443
    138 C47        -8.1370   -3.2450    0.1310 c3        1 MOL      0.153438
    139 C48        -8.4820   -2.4880   -1.1410 c3        1 MOL     -0.168930
    140 C49        -7.3350   -1.4740   -1.3300 c3        1 MOL     -0.070420
    141 H60        -8.2710   -1.5350    1.4680 h1        1 MOL      0.121286
    142 H61        -7.5080   -4.0950   -0.1030 hc        1 MOL      0.004661
    143 H62        -9.0260   -3.6650    0.6110 hc        1 MOL      0.004661
    144 H63        -8.4610   -3.2160   -1.9560 hc        1 MOL      0.065505
    145 H64        -9.3970   -1.9190   -1.0240 hc        1 MOL      0.065505
    146 H65        -6.4710   -1.9510   -1.7800 h1        1 MOL      0.057645
    147 H66        -7.6590   -0.6950   -2.0260 h1        1 MOL      0.057645
    148 N13        -5.1810   -2.7390    1.9360 n         1 MOL     -0.193245
    149 C50        -4.2570   -3.0410    3.0440 c3        1 MOL     -0.232599
    150 C51        -4.1370   -1.9970    4.1660 c         1 MOL      0.560302
    151 O21        -3.9580   -2.3680    5.3540 o         1 MOL     -0.562313
    152 C52        -2.8030   -3.3190    2.4380 c3        1 MOL      0.224816
    153 C53        -2.6850   -4.7270    1.8110 c3        1 MOL      0.030609
    154 C54        -1.3660   -5.0150    1.1680 c         1 MOL      0.540411
    155 O22        -0.3390   -4.9900    1.9120 o         1 MOL     -0.656118
    156 O23        -1.3440   -4.9190   -0.0990 o         1 MOL     -0.656118
    157 H67        -4.7510   -2.5540    1.0430 hn        1 MOL      0.256589
    158 H68        -4.7090   -3.8610    3.5910 h1        1 MOL      0.122865
    159 H69        -1.9700   -3.2250    3.1370 hc        1 MOL     -0.042144
    160 H70        -2.6280   -2.5550    1.6730 hc        1 MOL     -0.042144
    161 H71        -3.4630   -4.8230    1.0560 hc        1 MOL     -0.048098
    162 H72        -2.7740   -5.4120    2.6500 hc        1 MOL     -0.048098
    163 N14        -4.2300   -0.7270    3.8110 n         1 MOL     -0.298323
    164 C55        -4.2560    0.3930    4.7780 c3        1 MOL     -0.191563
    165 H73        -5.1040    1.0420    4.5600 h1        1 MOL      0.093671
    166 H74        -4.3510   -0.0020    5.7890 h1        1 MOL      0.093671
    167 H75        -3.3320    0.9660    4.6970 h1        1 MOL      0.093671
    168 H76        -4.3550   -0.5420    2.8270 hn        1 MOL      0.253351
    169 Ca1        -0.0610   -4.2370   -2.1870 Ca        1 MOL      1.746258
    170 O24         0.5040   -4.9330   -4.7850 oh        1 MOL     -0.853505
    171 H77         1.2660   -4.6670   -5.2990 ho        1 MOL      0.416190
    172 H78        -0.0530   -5.4170   -5.3960 ho        1 MOL      0.416190
    173 O25         1.4310   -3.8430    0.3130 oh        1 MOL     -0.853505
    174 H79         1.8350   -3.1670    0.8680 ho        1 MOL      0.416190
    175 H80         0.7290   -4.2090    0.8430 ho        1 MOL      0.416190
    176 O26        -1.4370   -6.3590   -3.1990 oh        1 MOL     -0.853505
    177 H81        -2.3670   -6.5930   -3.1950 ho        1 MOL      0.416190
    178 H82        -1.0760   -6.7980   -3.9630 ho        1 MOL      0.416190
    179 O27        -1.6070   -3.1220   -4.0880 oh        1 MOL     -0.853505
    180 H83        -1.2580   -2.6750   -4.8630 ho        1 MOL      0.416190
    181 H84        -2.4460   -2.6930   -3.9130 ho        1 MOL      0.416190
    182 O28         1.3530   -2.1960   -3.3480 oh        1 MOL     -0.853505
    183 H85         1.3070   -1.3690   -2.8790 ho        1 MOL      0.416190
    184 H86         1.8130   -1.9770   -4.1630 ho        1 MOL      0.416190
@<TRIPOS>BOND
     1    1    2 1   
     2    1    4 1   
     3    1    5 1   
     4    1    6 1   
     5    2    3 2   
     6    2    7 1   
     7    7    8 1   
     8    7   15 1   
     9    8    9 1   
    10    8   11 1   
    11    8   16 1   
    12    9   10 2   
    13    9   19 1   
    14   11   12 1   
    15   11   17 1   
    16   11   18 1   
    17   12   13 1   
    18   12   14 1   
    19   19   20 1   
    20   19   24 1   
    21   20   21 1   
    22   20   23 1   
    23   20   25 1   
    24   21   22 2   
    25   21   29 1   
    26   23   26 1   
    27   23   27 1   
    28   23   28 1   
    29   29   30 1   
    30   29   37 1   
    31   30   31 1   
    32   30   33 1   
    33   30   38 1   
    34   31   32 2   
    35   31   41 1   
    36   33   34 1   
    37   33   39 1   
    38   33   40 1   
    39   34   35 1   
    40   34   36 1   
    41   41   42 1   
    42   41   45 1   
    43   42   43 1   
    44   42   46 1   
    45   42   47 1   
    46   43   44 2   
    47   43   48 1   
    48   48   49 1   
    49   48   56 1   
    50   49   50 1   
    51   49   52 1   
    52   49   57 1   
    53   50   51 2   
    54   50   62 1   
    55   52   53 1   
    56   52   58 1   
    57   52   59 1   
    58   53   54 1   
    59   53   55 2   
    60   54   60 1   
    61   54   61 1   
    62   62   63 1   
    63   62   66 1   
    64   63   64 1   
    65   63   67 1   
    66   63   68 1   
    67   64   65 2   
    68   64   69 1   
    69   69   70 1   
    70   69   76 1   
    71   70   71 1   
    72   70   73 1   
    73   70   77 1   
    74   71   72 2   
    75   71   83 1   
    76   73   74 1   
    77   73   75 1   
    78   73   78 1   
    79   74   80 1   
    80   74   81 1   
    81   74   82 1   
    82   75   79 1   
    83   83   84 1   
    84   83   91 1   
    85   84   85 1   
    86   84   87 1   
    87   84   92 1   
    88   85   86 2   
    89   85  102 1   
    90   87   88 1   
    91   87   89 1   
    92   87   93 1   
    93   88   90 1   
    94   88   94 1   
    95   88   95 1   
    96   89   96 1   
    97   89   97 1   
    98   89   98 1   
    99   90   99 1   
   100   90  100 1   
   101   90  101 1   
   102  102  103 1   
   103  102  110 1   
   104  103  104 1   
   105  103  106 1   
   106  103  111 1   
   107  104  105 2   
   108  104  114 1   
   109  106  107 1   
   110  106  112 1   
   111  106  113 1   
   112  107  108 1   
   113  107  109 1   
   114  114  115 1   
   115  114  125 1   
   116  115  116 1   
   117  115  118 1   
   118  115  126 1   
   119  116  117 2   
   120  116  134 1   
   121  118  119 1   
   122  118  127 1   
   123  118  128 1   
   124  119  120 ar  
   125  119  121 ar  
   126  120  122 ar  
   127  120  129 1   
   128  121  123 ar  
   129  121  130 1   
   130  122  124 ar  
   131  122  131 1   
   132  123  124 ar  
   133  123  132 1   
   134  124  133 1   
   135  134  135 1   
   136  134  140 1   
   137  135  136 1   
   138  135  138 1   
   139  135  141 1   
   140  136  137 2   
   141  136  148 1   
   142  138  139 1   
   143  138  142 1   
   144  138  143 1   
   145  139  140 1   
   146  139  144 1   
   147  139  145 1   
   148  140  146 1   
   149  140  147 1   
   150  148  149 1   
   151  148  157 1   
   152  149  150 1   
   153  149  152 1   
   154  149  158 1   
   155  150  151 2   
   156  150  163 1   
   157  152  153 1   
   158  152  159 1   
   159  152  160 1   
   160  153  154 1   
   161  153  161 1   
   162  153  162 1   
   163  154  155 1   
   164  154  156 1   
   165  163  164 1   
   166  163  168 1   
   167  164  165 1   
   168  164  166 1   
   169  164  167 1   
   170  170  171 1   
   171  170  172 1   
   172  173  174 1   
   173  173  175 1   
   174  176  177 1   
   175  176  178 1   
   176  179  180 1   
   177  179  181 1   
   178  182  183 1   
   179  182  184 1   
@<TRIPOS>SUBSTRUCTURE
     1 MOL         1 TEMP              0 ****  ****    0 ROOT
