@<TRIPOS>MOLECULE
MOL
  189   185     1     0     0
SMALL
resp


@<TRIPOS>ATOM
      1 C1          3.9040    5.3880   -2.0230 c3        1 MOL     -0.475825
      2 C2          4.7030    4.3930   -1.2200 c         1 MOL      1.014557
      3 O1          4.2200    3.7840   -0.3360 o         1 MOL     -0.783832
      4 H1          2.9280    5.5300   -1.5580 hc        1 MOL      0.117434
      5 H2          4.4330    6.3400   -2.0540 hc        1 MOL      0.117434
      6 H3          3.7700    5.0130   -3.0380 hc        1 MOL      0.117434
      7 N1          6.0060    4.2590   -1.5590 n         1 MOL     -0.744405
      8 C3          6.9020    3.1260   -1.1880 c3        1 MOL      0.259122
      9 C4          6.0800    1.8210   -1.1990 c         1 MOL      0.385225
     10 O2          5.5560    1.3300   -0.1930 o         1 MOL     -0.575172
     11 C5          7.7110    3.4180    0.0810 c3        1 MOL     -0.116661
     12 C6          6.9190    4.1080    1.2550 c         1 MOL      0.706781
     13 O3          6.1200    3.4090    1.9350 o         1 MOL     -0.710331
     14 O4          7.0740    5.2860    1.5280 o         1 MOL     -0.710331
     15 H4          6.4160    4.8270   -2.2880 hn        1 MOL      0.323353
     16 H5          7.6100    2.9020   -1.9860 h1        1 MOL      0.009693
     17 H6          8.5430    4.0370   -0.2500 hc        1 MOL      0.021347
     18 H7          8.2490    2.5530    0.4480 hc        1 MOL      0.021347
     19 N2          5.8700    1.3240   -2.4370 n         1 MOL     -0.511854
     20 C7          5.3410    0.0300   -2.8920 c3        1 MOL      0.160907
     21 C8          6.0370   -1.1990   -2.3110 c         1 MOL      0.388109
     22 O5          6.3230   -2.1690   -3.0550 o         1 MOL     -0.597282
     23 C9          3.8050   -0.0500   -2.7210 c3        1 MOL      0.426498
     24 C10         3.2550   -1.3370   -3.3470 c3        1 MOL     -0.133155
     25 C11         3.0670    1.0850   -3.4760 c3        1 MOL     -0.232505
     26 C12         3.5740   -1.6470   -4.8030 c3        1 MOL     -0.274157
     27 H8          6.2050    1.8720   -3.2210 hn        1 MOL      0.273057
     28 H9          5.6900    0.0040   -3.9260 h1        1 MOL      0.039761
     29 H10         3.5410   -0.1600   -1.6690 hc        1 MOL     -0.217291
     30 H11         2.1680   -1.3770   -3.3040 hc        1 MOL      0.108122
     31 H12         3.6500   -2.1320   -2.7060 hc        1 MOL      0.108122
     32 H13         3.3530    2.0730   -3.1030 hc        1 MOL      0.017526
     33 H14         3.2720    1.0250   -4.5470 hc        1 MOL      0.017526
     34 H15         2.0100    0.9790   -3.2400 hc        1 MOL      0.017526
     35 H16         3.4320   -2.7190   -4.9520 hc        1 MOL      0.055563
     36 H17         2.9040   -1.0680   -5.4340 hc        1 MOL      0.055563
     37 H18         4.5850   -1.3420   -5.0660 hc        1 MOL      0.055563
     38 N3          6.2690   -1.2660   -1.0100 n         1 MOL     -0.351219
     39 C13         7.2560   -2.2400   -0.4750 c3        1 MOL      0.402020
     40 C14         7.0160   -3.7550   -0.6460 c         1 MOL      0.570022
     41 O6          8.0020   -4.4000   -1.0370 o         1 MOL     -0.535726
     42 C15         7.4630   -1.7440    0.9740 c3        1 MOL     -0.173093
     43 C16         8.6990   -2.3750    1.6850 c         1 MOL      0.676059
     44 O7          9.3440   -3.2600    1.1290 o         1 MOL     -0.717731
     45 O8          8.9650   -1.9110    2.8060 o         1 MOL     -0.717731
     46 H19         5.9410   -0.4930   -0.4450 hn        1 MOL      0.310004
     47 H20         8.2070   -1.9800   -0.9400 h1        1 MOL     -0.062623
     48 H21         6.6600   -2.1380    1.6070 hc        1 MOL      0.015869
     49 H22         7.5460   -0.6680    1.0940 hc        1 MOL      0.015869
     50 N4          5.7820   -4.3590   -0.4500 n         1 MOL     -0.598997
     51 C17         4.5510   -3.9210    0.2370 c3        1 MOL      0.228744
     52 C18         4.7470   -3.9840    1.7650 c         1 MOL      0.391168
     53 O9          5.4990   -4.7990    2.3050 o         1 MOL     -0.480152
     54 H23         5.7200   -5.3420   -0.6900 hn        1 MOL      0.286703
     55 H24         3.6660   -4.4640   -0.0890 h1        1 MOL      0.009464
     56 H25         4.4560   -2.8860   -0.0830 h1        1 MOL      0.009464
     57 N5          4.0070   -3.2590    2.6750 n         1 MOL     -0.436981
     58 C19         2.8680   -2.4100    2.3400 c3        1 MOL      0.167711
     59 C20         2.9750   -1.2070    1.4080 c         1 MOL      0.586878
     60 O10         4.0250   -0.5550    1.3920 o         1 MOL     -0.637047
     61 C21         2.1800   -1.9970    3.6670 c3        1 MOL     -0.460549
     62 C22         2.1120   -3.0930    4.7700 c         1 MOL      0.775523
     63 O11         2.9750   -3.1200    5.6850 o         1 MOL     -0.721215
     64 O12         1.2100   -3.9320    4.7920 o         1 MOL     -0.721215
     65 H26         4.1000   -3.5970    3.6260 hn        1 MOL      0.314204
     66 H27         2.2020   -3.0540    1.7770 h1        1 MOL      0.009807
     67 H28         1.1410   -1.8070    3.4030 hc        1 MOL      0.081702
     68 H29         2.6220   -1.0930    4.0970 hc        1 MOL      0.081702
     69 N6          1.9550   -0.8110    0.5750 n         1 MOL     -0.112360
     70 C23         0.6170   -1.3910    0.4270 c3        1 MOL     -0.393138
     71 C24         0.5270   -2.6970   -0.3050 c         1 MOL      0.648810
     72 O13         1.4880   -3.1170   -0.9670 o         1 MOL     -0.571233
     73 H30         2.0410    0.0130   -0.0140 hn        1 MOL      0.206201
     74 H31        -0.0350   -0.7240   -0.1270 h1        1 MOL      0.075061
     75 H32         0.1010   -1.4780    1.3880 h1        1 MOL      0.075061
     76 N7         -0.6580   -3.2920   -0.2590 n         1 MOL     -0.451953
     77 C25        -1.0370   -4.5200   -1.0110 c3        1 MOL     -0.021129
     78 C26        -1.9990   -4.0900   -2.2010 c         1 MOL      0.434502
     79 O14        -2.1990   -4.9050   -3.1420 o         1 MOL     -0.503979
     80 C27        -1.6370   -5.5810   -0.1410 c3        1 MOL      0.284522
     81 C28        -3.1760   -5.4890    0.1950 c3        1 MOL     -0.159282
     82 C29        -3.5120   -6.5000    1.2350 c         1 MOL      0.535320
     83 N8         -3.2230   -6.2660    2.5180 n         1 MOL     -0.747078
     84 O15        -3.8920   -7.6330    0.8480 o         1 MOL     -0.534227
     85 H33        -1.3930   -2.8290    0.2650 hn        1 MOL      0.270077
     86 H34        -0.1420   -4.9280   -1.4850 h1        1 MOL      0.126922
     87 H35        -1.1100   -5.6280    0.8150 hc        1 MOL     -0.026331
     88 H36        -1.4350   -6.4930   -0.7040 hc        1 MOL     -0.026331
     89 H37        -3.7600   -5.6410   -0.7160 hc        1 MOL      0.013133
     90 H38        -3.3730   -4.4870    0.5780 hc        1 MOL      0.013133
     91 H39        -2.6810   -5.4660    2.8080 hn        1 MOL      0.367831
     92 H40        -3.5700   -6.9300    3.1960 hn        1 MOL      0.367831
     93 N9         -2.5290   -2.8520   -2.2210 n         1 MOL     -0.356854
     94 C30        -3.1130   -2.1660   -3.3910 c3        1 MOL     -0.032195
     95 C31        -4.6400   -1.9790   -3.2200 c         1 MOL      0.431939
     96 O16        -5.3650   -1.9560   -4.1920 o         1 MOL     -0.522468
     97 C32        -2.3820   -0.8470   -3.5890 c3        1 MOL      0.122576
     98 C33        -0.9650   -1.0820   -4.1260 c3        1 MOL     -0.150426
     99 C34        -2.3630    0.0050   -2.3340 c3        1 MOL     -0.150426
    100 H41        -2.4460   -2.2310   -1.4170 hn        1 MOL      0.235823
    101 H42        -2.8740   -2.6670   -4.3240 h1        1 MOL      0.118121
    102 H43        -2.8670   -0.3190   -4.4150 hc        1 MOL     -0.002272
    103 H44        -0.9410   -1.4430   -5.1500 hc        1 MOL      0.038047
    104 H45        -0.4760   -0.1100   -3.9970 hc        1 MOL      0.038047
    105 H46        -0.4100   -1.8380   -3.5620 hc        1 MOL      0.038047
    106 H47        -2.1450    1.0130   -2.6870 hc        1 MOL      0.038047
    107 H48        -3.3540    0.0720   -1.8890 hc        1 MOL      0.038047
    108 H49        -1.5290   -0.2660   -1.6730 hc        1 MOL      0.038047
    109 N10        -5.1460   -1.9960   -2.0030 n         1 MOL     -0.264552
    110 C35        -6.5560   -1.7700   -1.6970 c3        1 MOL      0.094613
    111 C36        -6.7560   -0.2960   -1.3760 c         1 MOL      0.505993
    112 O17        -7.6620    0.3550   -1.9030 o         1 MOL     -0.539928
    113 C37        -7.1150   -2.7470   -0.6020 c3        1 MOL     -0.115283
    114 C38        -6.9010   -4.2180   -0.9800 c         1 MOL      0.597565
    115 N11        -7.1890   -5.1960   -0.1460 n         1 MOL     -0.790202
    116 O18        -6.5340   -4.5870   -2.0750 o         1 MOL     -0.480109
    117 H50        -4.5530   -2.2190   -1.2190 hn        1 MOL      0.208400
    118 H51        -7.1050   -1.9970   -2.6100 h1        1 MOL      0.071735
    119 H52        -8.1420   -2.4770   -0.3580 hc        1 MOL      0.029394
    120 H53        -6.6140   -2.6060    0.3540 hc        1 MOL      0.029394
    121 H54        -7.7120   -4.9950    0.6990 hn        1 MOL      0.361188
    122 H55        -7.0280   -6.1610   -0.4100 hn        1 MOL      0.361188
    123 N12        -5.9920    0.2120   -0.3710 n         1 MOL     -0.320018
    124 C39        -6.1640    1.6030    0.0740 c3        1 MOL     -0.027734
    125 C40        -4.8170    2.3730    0.3040 c         1 MOL      0.589403
    126 O19        -3.7820    1.7860    0.5470 o         1 MOL     -0.482192
    127 C41        -6.8890    1.5690    1.4080 c3        1 MOL     -0.157623
    128 C42        -8.0500    0.5830    1.5880 ca        1 MOL     -0.022759
    129 C43        -9.2660    0.8290    0.9200 ca        1 MOL     -0.117255
    130 C44        -8.0210   -0.3620    2.6380 ca        1 MOL     -0.117255
    131 C45       -10.3250   -0.0630    0.9880 ca        1 MOL     -0.270618
    132 C46        -9.0930   -1.3050    2.7460 ca        1 MOL     -0.270618
    133 C47       -10.2810   -1.0740    1.9970 ca        1 MOL      0.325493
    134 O20       -11.4030   -1.8270    2.1660 oh        1 MOL     -0.516601
    135 H56        -5.2440   -0.3230    0.0480 hn        1 MOL      0.230010
    136 H57        -6.7510    2.1950   -0.6240 h1        1 MOL      0.067572
    137 H58        -7.3320    2.5450    1.5870 hc        1 MOL      0.105131
    138 H59        -6.1650    1.3470    2.1990 hc        1 MOL      0.105131
    139 H60        -9.2270    1.7350    0.3370 ha        1 MOL      0.136838
    140 H61        -7.1660   -0.4730    3.3020 ha        1 MOL      0.136838
    141 H62       -11.1940    0.0610    0.3560 ha        1 MOL      0.140686
    142 H63        -9.0200   -2.1720    3.3830 ha        1 MOL      0.140686
    143 H64       -12.1090   -1.4690    1.6230 ho        1 MOL      0.373221
    144 N13        -4.9120    3.7460    0.2510 n         1 MOL     -0.652828
    145 C48        -3.9780    4.7470    0.6700 c3        1 MOL      0.054268
    146 C49        -2.5390    4.9700    0.0270 c         1 MOL      0.338667
    147 O21        -1.8270    5.9070    0.4280 o         1 MOL     -0.456133
    148 C50        -3.9020    4.8370    2.1810 c3        1 MOL      0.030482
    149 C51        -5.1950    4.6280    3.0480 c3        1 MOL     -0.081301
    150 C52        -5.3050    5.5200    4.2870 c         1 MOL      0.662528
    151 O22        -5.7070    6.6740    4.1040 o         1 MOL     -0.723332
    152 O23        -4.9990    4.9720    5.4040 o         1 MOL     -0.723332
    153 H65        -5.8500    4.0400    0.0110 hn        1 MOL      0.350666
    154 H66        -4.5170    5.6480    0.3600 h1        1 MOL      0.088355
    155 H67        -3.5480    5.7980    2.5450 hc        1 MOL      0.036276
    156 H68        -3.2150    4.0640    2.5140 hc        1 MOL      0.036276
    157 H69        -5.1950    3.6290    3.4660 hc        1 MOL     -0.028729
    158 H70        -6.0920    4.8300    2.4540 hc        1 MOL     -0.028729
    159 N14        -2.0990    4.0550   -0.9020 n         1 MOL     -0.297947
    160 C53        -1.0340    4.5060   -1.7970 c3        1 MOL     -0.108875
    161 C54        -1.6150    5.3260   -2.9310 c         1 MOL      0.596318
    162 O24        -1.0030    6.2830   -3.3820 o         1 MOL     -0.544743
    163 C55        -0.2150    3.2750   -2.2940 c3        1 MOL     -0.082162
    164 C56         0.1390    2.1130   -1.3710 c3        1 MOL      0.638623
    165 C57         1.1370    2.4830   -0.2520 c         1 MOL      0.383245
    166 O25         2.1780    1.8050   -0.1490 o         1 MOL     -0.553094
    167 O26         0.8040    3.1960    0.7120 o         1 MOL     -0.553094
    168 H71        -2.7380    3.3520   -1.2450 hn        1 MOL      0.218492
    169 H72        -0.3620    5.0930   -1.1620 h1        1 MOL      0.137815
    170 H73         0.6930    3.6950   -2.7400 hc        1 MOL     -0.026591
    171 H74        -0.8960    2.8840   -3.0540 hc        1 MOL     -0.026591
    172 H75         0.4870    1.3270   -2.0400 hc        1 MOL     -0.178670
    173 H76        -0.7490    1.7290   -0.8800 hc        1 MOL     -0.178670
    174 N15        -2.8940    4.9930   -3.2950 n         1 MOL     -0.303587
    175 C58        -3.8330    5.7600   -4.1130 c3        1 MOL     -0.293106
    176 H77        -4.7910    5.8300   -3.5980 h1        1 MOL      0.120328
    177 H78        -3.4370    6.7610   -4.2800 h1        1 MOL      0.120328
    178 H79        -3.9730    5.2600   -5.0720 h1        1 MOL      0.120328
    179 H80        -3.3230    4.1580   -2.8940 hn        1 MOL      0.239283
    180 Ca1         3.9090    2.1220    1.5940 Ca        1 MOL      1.749978
    181 O27         2.7230    4.0490    3.0110 oh        1 MOL     -0.856319
    182 H81         1.9350    4.5920    3.0230 ho        1 MOL      0.420602
    183 H82         3.4530    4.6710    2.9820 ho        1 MOL      0.420602
    184 O28         1.8770    1.0920    3.0510 oh        1 MOL     -0.856319
    185 H83         1.7670    0.6730    3.9040 ho        1 MOL      0.420602
    186 H84         1.0400    1.5240    2.8780 ho        1 MOL      0.420602
    187 O29         4.9320    1.2010    3.8910 oh        1 MOL     -0.856319
    188 H85         4.4180    1.0520    4.6840 ho        1 MOL      0.420602
    189 H86         5.7130    0.6550    3.9950 ho        1 MOL      0.420602
@<TRIPOS>BOND
     1    1    2 1   
     2    1    4 1   
     3    1    5 1   
     4    1    6 1   
     5    2    3 2   
     6    2    7 1   
     7    7    8 1   
     8    7   15 1   
     9    8    9 1   
    10    8   11 1   
    11    8   16 1   
    12    9   10 2   
    13    9   19 1   
    14   11   12 1   
    15   11   17 1   
    16   11   18 1   
    17   12   13 1   
    18   12   14 1   
    19   19   20 1   
    20   19   27 1   
    21   20   21 1   
    22   20   23 1   
    23   20   28 1   
    24   21   22 2   
    25   21   38 1   
    26   23   24 1   
    27   23   25 1   
    28   23   29 1   
    29   24   26 1   
    30   24   30 1   
    31   24   31 1   
    32   25   32 1   
    33   25   33 1   
    34   25   34 1   
    35   26   35 1   
    36   26   36 1   
    37   26   37 1   
    38   38   39 1   
    39   38   46 1   
    40   39   40 1   
    41   39   42 1   
    42   39   47 1   
    43   40   41 2   
    44   40   50 1   
    45   42   43 1   
    46   42   48 1   
    47   42   49 1   
    48   43   44 1   
    49   43   45 1   
    50   50   51 1   
    51   50   54 1   
    52   51   52 1   
    53   51   55 1   
    54   51   56 1   
    55   52   53 2   
    56   52   57 1   
    57   57   58 1   
    58   57   65 1   
    59   58   59 1   
    60   58   61 1   
    61   58   66 1   
    62   59   60 2   
    63   59   69 1   
    64   61   62 1   
    65   61   67 1   
    66   61   68 1   
    67   62   63 1   
    68   62   64 1   
    69   69   70 1   
    70   69   73 1   
    71   70   71 1   
    72   70   74 1   
    73   70   75 1   
    74   71   72 2   
    75   71   76 1   
    76   76   77 1   
    77   76   85 1   
    78   77   78 1   
    79   77   80 1   
    80   77   86 1   
    81   78   79 2   
    82   78   93 1   
    83   80   81 1   
    84   80   87 1   
    85   80   88 1   
    86   81   82 1   
    87   81   89 1   
    88   81   90 1   
    89   82   83 1   
    90   82   84 2   
    91   83   91 1   
    92   83   92 1   
    93   93   94 1   
    94   93  100 1   
    95   94   95 1   
    96   94   97 1   
    97   94  101 1   
    98   95   96 2   
    99   95  109 1   
   100   97   98 1   
   101   97   99 1   
   102   97  102 1   
   103   98  103 1   
   104   98  104 1   
   105   98  105 1   
   106   99  106 1   
   107   99  107 1   
   108   99  108 1   
   109  109  110 1   
   110  109  117 1   
   111  110  111 1   
   112  110  113 1   
   113  110  118 1   
   114  111  112 2   
   115  111  123 1   
   116  113  114 1   
   117  113  119 1   
   118  113  120 1   
   119  114  115 1   
   120  114  116 2   
   121  115  121 1   
   122  115  122 1   
   123  123  124 1   
   124  123  135 1   
   125  124  125 1   
   126  124  127 1   
   127  124  136 1   
   128  125  126 2   
   129  125  144 1   
   130  127  128 1   
   131  127  137 1   
   132  127  138 1   
   133  128  129 ar  
   134  128  130 ar  
   135  129  131 ar  
   136  129  139 1   
   137  130  132 ar  
   138  130  140 1   
   139  131  133 ar  
   140  131  141 1   
   141  132  133 ar  
   142  132  142 1   
   143  133  134 1   
   144  134  143 1   
   145  144  145 1   
   146  144  153 1   
   147  145  146 1   
   148  145  148 1   
   149  145  154 1   
   150  146  147 2   
   151  146  159 1   
   152  148  149 1   
   153  148  155 1   
   154  148  156 1   
   155  149  150 1   
   156  149  157 1   
   157  149  158 1   
   158  150  151 1   
   159  150  152 1   
   160  159  160 1   
   161  159  168 1   
   162  160  161 1   
   163  160  163 1   
   164  160  169 1   
   165  161  162 2   
   166  161  174 1   
   167  163  164 1   
   168  163  170 1   
   169  163  171 1   
   170  164  165 1   
   171  164  172 1   
   172  164  173 1   
   173  165  166 1   
   174  165  167 1   
   175  174  175 1   
   176  174  179 1   
   177  175  176 1   
   178  175  177 1   
   179  175  178 1   
   180  181  182 1   
   181  181  183 1   
   182  184  185 1   
   183  184  186 1   
   184  187  188 1   
   185  187  189 1   
@<TRIPOS>SUBSTRUCTURE
     1 MOL         1 TEMP              0 ****  ****    0 ROOT
