@<TRIPOS>MOLECULE
MOL
  201   193     1     0     0
SMALL
resp


@<TRIPOS>ATOM
      1 C1         -2.8500    2.6670    3.4530 c3        1 MOL     -0.223121
      2 C2         -4.0840    1.9460    3.7420 c         1 MOL      0.654796
      3 O1         -4.0330    0.9320    4.5500 o         1 MOL     -0.598413
      4 H1         -2.6300    2.5970    2.3870 hc        1 MOL      0.059748
      5 H2         -2.9670    3.7140    3.7310 hc        1 MOL      0.059748
      6 H3         -2.0310    2.2280    4.0220 hc        1 MOL      0.059748
      7 N1         -5.2090    2.4420    3.2690 n         1 MOL     -0.658473
      8 C3         -6.4690    1.6850    3.2270 c3        1 MOL      0.421450
      9 C4         -6.3320    0.7290    2.0510 c         1 MOL      0.245752
     10 O2         -5.5230    0.9090    1.0580 o         1 MOL     -0.514335
     11 C5         -7.6760    2.6220    3.1910 c3        1 MOL     -0.197805
     12 C6         -7.5370    3.7790    2.2560 c         1 MOL      0.785852
     13 O3         -7.6710    3.5390    0.9950 o         1 MOL     -0.747762
     14 O4         -7.1300    4.8750    2.7870 o         1 MOL     -0.747762
     15 H4         -5.1220    3.2400    2.6490 hn        1 MOL      0.422155
     16 H5         -6.6230    1.0260    4.0850 h1        1 MOL     -0.014616
     17 H6         -7.7910    2.8860    4.2340 hc        1 MOL      0.041397
     18 H7         -8.5890    2.0620    2.9730 hc        1 MOL      0.041397
     19 N2         -7.2030   -0.2710    2.0760 n         1 MOL     -0.349782
     20 C7         -7.1580   -1.4890    1.1740 c3        1 MOL      0.084020
     21 C8         -7.4400   -1.3750   -0.3680 c         1 MOL      0.498689
     22 O5         -8.0490   -2.2410   -0.9690 o         1 MOL     -0.524594
     23 C9         -7.9300   -2.6500    1.9050 c3        1 MOL     -0.110734
     24 C10        -9.4380   -2.3880    2.0790 c3        1 MOL      0.073937
     25 C11       -10.1480   -3.2440    3.1320 c3        1 MOL     -0.087383
     26 C12        -9.9100   -4.7440    3.0960 c3        1 MOL      0.027455
     27 N3        -10.5770   -5.3930    1.9590 n4        1 MOL     -0.297514
     28 H8         -7.9140   -0.1570    2.7890 hn        1 MOL      0.259264
     29 H9         -6.1230   -1.8450    1.1370 h1        1 MOL      0.041135
     30 H10        -7.5230   -2.7850    2.9010 hc        1 MOL      0.040670
     31 H11        -7.8200   -3.5080    1.2350 hc        1 MOL      0.040670
     32 H12        -9.9190   -2.4400    1.1060 hc        1 MOL      0.037888
     33 H13        -9.6300   -1.3840    2.4550 hc        1 MOL      0.037888
     34 H14       -11.2170   -2.9880    3.1240 hc        1 MOL      0.047667
     35 H15        -9.8620   -2.9130    4.1230 hc        1 MOL      0.047667
     36 H16       -10.3210   -5.2430    3.9690 hx        1 MOL      0.074822
     37 H17        -8.8400   -4.9530    3.0800 hx        1 MOL      0.074822
     38 H18       -10.2270   -5.1080    1.0530 hn        1 MOL      0.298251
     39 H19       -10.4490   -6.3730    2.1460 hn        1 MOL      0.298251
     40 H20       -11.5860   -5.3170    1.9520 hn        1 MOL      0.298251
     41 N4         -7.1030   -0.1610   -0.9040 n         1 MOL     -0.344152
     42 C13        -7.2000    0.2810   -2.3270 c3        1 MOL      0.137146
     43 C14        -6.0970    1.3400   -2.4860 c         1 MOL      0.462050
     44 O6         -6.1110    2.3700   -1.8610 o         1 MOL     -0.579318
     45 C15        -8.6470    0.6790   -2.7280 c3        1 MOL     -0.107469
     46 C16        -9.2980    1.5940   -1.6500 c         1 MOL      0.648002
     47 O7        -10.1220    1.0870   -0.8670 o         1 MOL     -0.704193
     48 O8         -9.0430    2.8230   -1.6640 o         1 MOL     -0.704193
     49 H21        -6.5950    0.4190   -0.2510 hn        1 MOL      0.267006
     50 H22        -6.9230   -0.5130   -3.0130 h1        1 MOL      0.048082
     51 H23        -9.2000   -0.2360   -2.9190 hc        1 MOL      0.029497
     52 H24        -8.6660    1.1920   -3.6940 hc        1 MOL      0.029497
     53 N5         -4.9980    1.1260   -3.2810 n         1 MOL     -0.454622
     54 C17        -4.8170   -0.0560   -4.1600 c3        1 MOL     -0.146143
     55 C18        -4.3400   -1.2020   -3.3180 c         1 MOL      0.747135
     56 O9         -4.0690   -1.1080   -2.1310 o         1 MOL     -0.586850
     57 H25        -4.2600    1.7860   -3.1170 hn        1 MOL      0.336053
     58 H26        -4.0120    0.1980   -4.8400 h1        1 MOL      0.105107
     59 H27        -5.6960   -0.4120   -4.6900 h1        1 MOL      0.105107
     60 N6         -4.1330   -2.3680   -3.9900 n         1 MOL     -0.788518
     61 C19        -3.7500   -3.6510   -3.3140 c3        1 MOL      0.432955
     62 C20        -2.2190   -3.7010   -2.9980 c         1 MOL      0.473121
     63 O10        -1.3900   -3.0160   -3.5070 o         1 MOL     -0.486224
     64 C21        -4.1810   -4.8970   -4.0560 c3        1 MOL     -0.105848
     65 C22        -4.3740   -4.6160   -5.5860 c         1 MOL      0.625086
     66 O11        -3.3750   -4.6670   -6.3050 o         1 MOL     -0.669986
     67 O12        -5.4750   -4.0400   -5.8590 o         1 MOL     -0.669986
     68 H28        -4.3260   -2.3630   -4.9850 hn        1 MOL      0.389474
     69 H29        -4.1740   -3.7880   -2.3170 h1        1 MOL     -0.048886
     70 H30        -5.1090   -5.2810   -3.6340 hc        1 MOL     -0.034225
     71 H31        -3.5390   -5.7610   -3.8610 hc        1 MOL     -0.034225
     72 N7         -1.8330   -4.6190   -2.0900 n         1 MOL     -0.301742
     73 C23        -0.4240   -4.8080   -1.7240 c3        1 MOL     -0.359510
     74 C24        -0.0900   -4.1930   -0.3670 c         1 MOL      0.688279
     75 O13         1.0110   -4.4030    0.0850 o         1 MOL     -0.596165
     76 H32        -2.5300   -5.2470   -1.7160 hn        1 MOL      0.226891
     77 H33         0.2590   -4.4930   -2.5260 h1        1 MOL      0.167241
     78 H34        -0.3180   -5.8910   -1.6170 h1        1 MOL      0.167241
     79 N8         -0.9870   -3.3950    0.2370 n         1 MOL     -0.410554
     80 C25        -0.9450   -2.9700    1.6920 c3        1 MOL     -0.002890
     81 C26         0.0680   -1.7650    1.7920 c         1 MOL      0.334120
     82 O14         0.2040   -0.9040    0.9600 o         1 MOL     -0.411337
     83 C27        -2.4180   -2.6780    2.1750 c3        1 MOL      0.221956
     84 C28        -3.1670   -1.8710    1.1610 c3        1 MOL     -0.235764
     85 O15        -3.0710   -3.9320    2.3560 oh        1 MOL     -0.607436
     86 H35        -1.9170   -3.3970   -0.1680 hn        1 MOL      0.242700
     87 H36        -0.6200   -3.8080    2.3080 h1        1 MOL      0.111960
     88 H37        -2.4100   -2.1640    3.1380 h1        1 MOL      0.019699
     89 H38        -3.8890   -3.6750    2.7930 ho        1 MOL      0.371931
     90 H39        -3.2980   -2.4150    0.2300 hc        1 MOL      0.093015
     91 H40        -4.0550   -1.3710    1.5590 hc        1 MOL      0.093015
     92 H41        -2.5580   -1.0050    0.8910 hc        1 MOL      0.093015
     93 N9          0.8490   -1.7050    2.8890 n         1 MOL     -0.264744
     94 C29         1.8190   -0.5620    3.1580 c3        1 MOL     -0.075272
     95 C30         3.0030   -0.6130    2.1150 c         1 MOL      0.460655
     96 O16         3.4220    0.4290    1.5790 o         1 MOL     -0.503120
     97 C31         2.3250   -0.8490    4.5890 c3        1 MOL      0.090876
     98 C32         1.1830   -0.3660    5.5550 c3        1 MOL      0.051631
     99 C33         3.5290    0.0430    5.0020 c3        1 MOL     -0.332586
    100 C34         1.1530   -1.3210    6.7560 c3        1 MOL     -0.266538
    101 H42         0.7600   -2.4460    3.5670 hn        1 MOL      0.188145
    102 H43         1.2960    0.3940    3.0570 h1        1 MOL      0.123310
    103 H44         2.5880   -1.8870    4.7980 hc        1 MOL      0.063520
    104 H45         0.1760   -0.2970    5.1410 hc        1 MOL      0.022558
    105 H46         1.4040    0.6590    5.8540 hc        1 MOL      0.022558
    106 H47         4.4720   -0.3860    4.6740 hc        1 MOL      0.093611
    107 H48         3.3600    1.1020    4.8050 hc        1 MOL      0.093611
    108 H49         3.6480   -0.0730    6.0830 hc        1 MOL      0.093611
    109 H50         0.2200   -1.1890    7.3060 hc        1 MOL      0.059605
    110 H51         1.1600   -2.3690    6.4440 hc        1 MOL      0.059605
    111 H52         1.9990   -1.1750    7.4280 hc        1 MOL      0.059605
    112 N10         3.4030   -1.8370    1.7310 n         1 MOL     -0.475622
    113 C35         4.3870   -1.9740    0.6720 c3        1 MOL      0.194925
    114 C36         5.6000   -2.8620    1.0310 c         1 MOL      0.485273
    115 O17         5.4690   -3.7600    1.8470 o         1 MOL     -0.540239
    116 C37         3.7840   -2.5610   -0.5210 c3        1 MOL      0.366830
    117 C38         2.7460   -1.6530   -1.1650 c3        1 MOL     -0.238227
    118 O18         4.7790   -2.8320   -1.5020 oh        1 MOL     -0.661452
    119 H53         3.0290   -2.6840    2.1390 hn        1 MOL      0.270110
    120 H54         4.8400   -1.0160    0.4080 h1        1 MOL      0.050828
    121 H55         3.2780   -3.5000   -0.2760 h1        1 MOL     -0.012749
    122 H56         4.3480   -3.4120   -2.1350 ho        1 MOL      0.397124
    123 H57         1.8590   -1.4900   -0.5490 hc        1 MOL      0.065181
    124 H58         3.2980   -0.7270   -1.3330 hc        1 MOL      0.065181
    125 H59         2.5020   -2.0040   -2.1690 hc        1 MOL      0.065181
    126 N11         6.7540   -2.6100    0.4200 n         1 MOL     -0.477198
    127 C39         7.9730   -3.3160    0.7160 c3        1 MOL      0.092630
    128 C40         9.1210   -2.3260    0.8120 c         1 MOL      0.602025
    129 O19         9.6890   -2.2790    1.9390 o         1 MOL     -0.584576
    130 C41         8.3650   -4.3710   -0.3490 c3        1 MOL      0.204854
    131 C42         9.6150   -5.2380   -0.0380 c3        1 MOL     -0.393891
    132 O20         8.5510   -3.7730   -1.6160 oh        1 MOL     -0.604943
    133 H60         6.7570   -1.8630   -0.2550 hn        1 MOL      0.293632
    134 H61         7.9430   -3.8510    1.6610 h1        1 MOL      0.094067
    135 H62         7.5280   -5.0300   -0.5280 h1        1 MOL      0.063926
    136 H63         8.8700   -4.4600   -2.2090 ho        1 MOL      0.400258
    137 H64         9.9170   -5.8580   -0.8830 hc        1 MOL      0.101245
    138 H65        10.4790   -4.6550    0.3030 hc        1 MOL      0.101245
    139 H66         9.3160   -5.9050    0.7730 hc        1 MOL      0.101245
    140 N12         9.3480   -1.3980   -0.1060 n         1 MOL     -0.487927
    141 C43        10.3660   -0.3030   -0.1370 c3        1 MOL      0.191305
    142 C44         9.7720    1.0020   -0.7220 c         1 MOL      0.440552
    143 O21         8.8140    1.0050   -1.4540 o         1 MOL     -0.469642
    144 C45        11.6400   -0.6780   -0.9220 c3        1 MOL     -0.211831
    145 C46        12.8730    0.2290   -0.7740 c3        1 MOL      0.148569
    146 C47        14.1070   -0.0830   -1.5870 c3        1 MOL     -0.047844
    147 C48        15.1700    0.8430   -1.2250 c3        1 MOL      0.101293
    148 N13        15.7450    0.5340    0.1080 n4        1 MOL     -0.396629
    149 H67         8.9240   -1.6750   -0.9870 hn        1 MOL      0.273116
    150 H68        10.7680   -0.0950    0.8560 h1        1 MOL      0.034615
    151 H69        11.3760   -0.7360   -1.9740 hc        1 MOL      0.067533
    152 H70        11.9370   -1.6890   -0.6270 hc        1 MOL      0.067533
    153 H71        13.2320    0.1420    0.2490 hc        1 MOL     -0.050363
    154 H72        12.7160    1.2700   -1.0250 hc        1 MOL     -0.050363
    155 H73        13.8280   -0.0150   -2.6390 hc        1 MOL      0.036523
    156 H74        14.4280   -1.1110   -1.4330 hc        1 MOL      0.036523
    157 H75        14.7210    1.8360   -1.2530 hx        1 MOL      0.066322
    158 H76        15.9080    0.6740   -2.0140 hx        1 MOL      0.066322
    159 H77        16.7120    0.8070    0.0630 hn        1 MOL      0.320082
    160 H78        15.2520    0.9580    0.8820 hn        1 MOL      0.320082
    161 H79        15.7160   -0.4530    0.2840 hn        1 MOL      0.320082
    162 N14        10.2820    2.1730   -0.4290 n         1 MOL     -0.312313
    163 C49         9.7700    3.4470   -1.1130 c3        1 MOL      0.179440
    164 C50         8.3650    3.8020   -0.6110 c         1 MOL      0.345834
    165 O22         7.4360    3.8780   -1.3940 o         1 MOL     -0.505607
    166 C51        10.6700    4.6260   -1.0000 c3        1 MOL     -0.088518
    167 C52        12.0090    4.5020   -1.6910 c3        1 MOL     -0.291758
    168 C53        13.1780    5.4150   -1.1530 c         1 MOL      0.699745
    169 O23        13.5560    6.3180   -1.9360 o         1 MOL     -0.697825
    170 O24        13.8520    5.2260   -0.1060 o         1 MOL     -0.697825
    171 H80        11.1110    2.1700    0.1430 hn        1 MOL      0.182445
    172 H81         9.7030    3.2470   -2.1910 h1        1 MOL      0.044660
    173 H82        10.8280    4.6550    0.0720 hc        1 MOL      0.065666
    174 H83        10.2840    5.5940   -1.3050 hc        1 MOL      0.065666
    175 H84        11.8480    4.8320   -2.7100 hc        1 MOL      0.081804
    176 H85        12.3760    3.4730   -1.6620 hc        1 MOL      0.081804
    177 N15         8.1240    4.1140    0.6760 n         1 MOL     -0.284699
    178 C54         8.8220    4.0280    1.9580 c3        1 MOL     -0.129598
    179 H86         8.4490    3.1690    2.5170 h1        1 MOL      0.066386
    180 H87         9.8910    3.9100    1.7840 h1        1 MOL      0.066386
    181 H88         8.6440    4.9380    2.5310 h1        1 MOL      0.066386
    182 H89         7.2000    4.4970    0.8180 hn        1 MOL      0.274103
    183 Ca1        -7.2710    4.6290   -1.2610 Ca        1 MOL      1.731101
    184 O25        -7.8480    7.0240   -2.4480 oh        1 MOL     -0.844536
    185 H90        -7.7560    7.1400   -3.3930 ho        1 MOL      0.416945
    186 H91        -8.0850    7.8880   -2.1220 ho        1 MOL      0.416945
    187 O26        -4.8960    3.8670    0.4700 oh        1 MOL     -0.844536
    188 H92        -5.2900    2.9940    0.3520 ho        1 MOL      0.416945
    189 H93        -4.0130    3.7810    0.1160 ho        1 MOL      0.416945
    190 O27        -6.5420    6.5010    0.6860 oh        1 MOL     -0.844536
    191 H94        -6.7490    5.9820    1.4600 ho        1 MOL      0.416945
    192 H95        -6.8340    7.3870    0.9060 ho        1 MOL      0.416945
    193 O28        -9.4350    5.8750   -0.1910 oh        1 MOL     -0.844536
    194 H96        -9.8300    6.6350   -0.6090 ho        1 MOL      0.416945
    195 H97       -10.0120    5.6650    0.5360 ho        1 MOL      0.416945
    196 O29        -7.2040    4.3890   -4.0020 oh        1 MOL     -0.844536
    197 H98        -6.4120    4.7190   -4.4150 ho        1 MOL      0.416945
    198 H99        -7.8140    4.2400   -4.7260 ho        1 MOL      0.416945
    199 O30        -5.1080    5.7150   -2.2120 oh        1 MOL     -0.844536
    200 H100       -4.2330    5.3450   -2.3520 ho        1 MOL      0.416945
    201 H101       -4.9970    6.6480   -2.4040 ho        1 MOL      0.416945
@<TRIPOS>BOND
     1    1    2 1   
     2    1    4 1   
     3    1    5 1   
     4    1    6 1   
     5    2    3 2   
     6    2    7 1   
     7    7    8 1   
     8    7   15 1   
     9    8    9 1   
    10    8   11 1   
    11    8   16 1   
    12    9   10 2   
    13    9   19 1   
    14   11   12 1   
    15   11   17 1   
    16   11   18 1   
    17   12   13 1   
    18   12   14 1   
    19   19   20 1   
    20   19   28 1   
    21   20   21 1   
    22   20   23 1   
    23   20   29 1   
    24   21   22 2   
    25   21   41 1   
    26   23   24 1   
    27   23   30 1   
    28   23   31 1   
    29   24   25 1   
    30   24   32 1   
    31   24   33 1   
    32   25   26 1   
    33   25   34 1   
    34   25   35 1   
    35   26   27 1   
    36   26   36 1   
    37   26   37 1   
    38   27   38 1   
    39   27   39 1   
    40   27   40 1   
    41   41   42 1   
    42   41   49 1   
    43   42   43 1   
    44   42   45 1   
    45   42   50 1   
    46   43   44 2   
    47   43   53 1   
    48   45   46 1   
    49   45   51 1   
    50   45   52 1   
    51   46   47 1   
    52   46   48 1   
    53   53   54 1   
    54   53   57 1   
    55   54   55 1   
    56   54   58 1   
    57   54   59 1   
    58   55   56 2   
    59   55   60 1   
    60   60   61 1   
    61   60   68 1   
    62   61   62 1   
    63   61   64 1   
    64   61   69 1   
    65   62   63 2   
    66   62   72 1   
    67   64   65 1   
    68   64   70 1   
    69   64   71 1   
    70   65   66 1   
    71   65   67 1   
    72   72   73 1   
    73   72   76 1   
    74   73   74 1   
    75   73   77 1   
    76   73   78 1   
    77   74   75 2   
    78   74   79 1   
    79   79   80 1   
    80   79   86 1   
    81   80   81 1   
    82   80   83 1   
    83   80   87 1   
    84   81   82 2   
    85   81   93 1   
    86   83   84 1   
    87   83   85 1   
    88   83   88 1   
    89   84   90 1   
    90   84   91 1   
    91   84   92 1   
    92   85   89 1   
    93   93   94 1   
    94   93  101 1   
    95   94   95 1   
    96   94   97 1   
    97   94  102 1   
    98   95   96 2   
    99   95  112 1   
   100   97   98 1   
   101   97   99 1   
   102   97  103 1   
   103   98  100 1   
   104   98  104 1   
   105   98  105 1   
   106   99  106 1   
   107   99  107 1   
   108   99  108 1   
   109  100  109 1   
   110  100  110 1   
   111  100  111 1   
   112  112  113 1   
   113  112  119 1   
   114  113  114 1   
   115  113  116 1   
   116  113  120 1   
   117  114  115 2   
   118  114  126 1   
   119  116  117 1   
   120  116  118 1   
   121  116  121 1   
   122  117  123 1   
   123  117  124 1   
   124  117  125 1   
   125  118  122 1   
   126  126  127 1   
   127  126  133 1   
   128  127  128 1   
   129  127  130 1   
   130  127  134 1   
   131  128  129 2   
   132  128  140 1   
   133  130  131 1   
   134  130  132 1   
   135  130  135 1   
   136  131  137 1   
   137  131  138 1   
   138  131  139 1   
   139  132  136 1   
   140  140  141 1   
   141  140  149 1   
   142  141  142 1   
   143  141  144 1   
   144  141  150 1   
   145  142  143 2   
   146  142  162 1   
   147  144  145 1   
   148  144  151 1   
   149  144  152 1   
   150  145  146 1   
   151  145  153 1   
   152  145  154 1   
   153  146  147 1   
   154  146  155 1   
   155  146  156 1   
   156  147  148 1   
   157  147  157 1   
   158  147  158 1   
   159  148  159 1   
   160  148  160 1   
   161  148  161 1   
   162  162  163 1   
   163  162  171 1   
   164  163  164 1   
   165  163  166 1   
   166  163  172 1   
   167  164  165 2   
   168  164  177 1   
   169  166  167 1   
   170  166  173 1   
   171  166  174 1   
   172  167  168 1   
   173  167  175 1   
   174  167  176 1   
   175  168  169 1   
   176  168  170 1   
   177  177  178 1   
   178  177  182 1   
   179  178  179 1   
   180  178  180 1   
   181  178  181 1   
   182  184  185 1   
   183  184  186 1   
   184  187  188 1   
   185  187  189 1   
   186  190  191 1   
   187  190  192 1   
   188  193  194 1   
   189  193  195 1   
   190  196  197 1   
   191  196  198 1   
   192  199  200 1   
   193  199  201 1   
@<TRIPOS>SUBSTRUCTURE
     1 MOL         1 TEMP              0 ****  ****    0 ROOT
