@<TRIPOS>MOLECULE
MOL
  189   185     1     0     0
SMALL
resp


@<TRIPOS>ATOM
      1 C1          5.4810    4.2820   -3.8440 c3        1 MOL     -0.474016
      2 C2          5.8990    3.3770   -2.5650 c         1 MOL      0.664499
      3 O1          5.1070    3.1260   -1.6580 o         1 MOL     -0.433519
      4 H1          4.4420    4.0840   -4.1050 hc        1 MOL      0.124238
      5 H2          5.5970    5.3370   -3.5970 hc        1 MOL      0.124238
      6 H3          6.1210    4.0340   -4.6900 hc        1 MOL      0.124238
      7 N1          7.1510    2.9120   -2.5760 n         1 MOL     -0.546385
      8 C3          7.6730    1.9330   -1.6490 c3        1 MOL      0.084377
      9 C4          6.7260    0.8100   -1.3780 c         1 MOL      0.123597
     10 O2          6.1090    0.5360   -0.3360 o         1 MOL     -0.336579
     11 C5          8.3950    2.4010   -0.3790 c3        1 MOL     -0.119767
     12 C6          7.5750    3.4950    0.3890 c         1 MOL      0.658431
     13 O3          6.4990    3.2010    0.9720 o         1 MOL     -0.706915
     14 O4          7.9480    4.7270    0.4600 o         1 MOL     -0.706915
     15 H4          7.7300    3.1700   -3.3560 hn        1 MOL      0.315898
     16 H5          8.5110    1.5080   -2.2020 h1        1 MOL      0.119353
     17 H6          9.4240    2.7380   -0.5130 hc        1 MOL      0.045198
     18 H7          8.4570    1.5120    0.2440 hc        1 MOL      0.045198
     19 N2          6.4410    0.0810   -2.4440 n         1 MOL     -0.309999
     20 C7          5.6550   -1.1760   -2.6260 c3        1 MOL      0.067304
     21 C8          6.2620   -2.3630   -1.8730 c         1 MOL      0.390702
     22 O5          6.3340   -3.4220   -2.4900 o         1 MOL     -0.563560
     23 C9          4.2070   -0.9860   -2.1320 c3        1 MOL      0.380380
     24 C10         3.2460   -2.2280   -2.3480 c3        1 MOL      0.013683
     25 C11         3.5120    0.2050   -2.6980 c3        1 MOL     -0.342083
     26 C12         3.0180   -2.7390   -3.7600 c3        1 MOL     -0.315925
     27 H8          7.0150    0.4180   -3.2000 hn        1 MOL      0.225605
     28 H9          5.5110   -1.3930   -3.6920 h1        1 MOL      0.034807
     29 H10         4.3110   -0.8690   -1.0560 hc        1 MOL     -0.274760
     30 H11         2.2850   -1.9620   -1.8970 hc        1 MOL      0.055436
     31 H12         3.6820   -3.1010   -1.8700 hc        1 MOL      0.055436
     32 H13         2.4720    0.1300   -2.3840 hc        1 MOL      0.041411
     33 H14         3.9290    1.1370   -2.3000 hc        1 MOL      0.041411
     34 H15         3.5740    0.2270   -3.7880 hc        1 MOL      0.041411
     35 H16         3.9590   -2.9810   -4.2590 hc        1 MOL      0.069005
     36 H17         2.3520   -3.5910   -3.6770 hc        1 MOL      0.069005
     37 H18         2.6800   -1.9050   -4.3800 hc        1 MOL      0.069005
     38 N3          6.6160   -2.1950   -0.5850 n         1 MOL     -0.212430
     39 C13         7.3650   -3.2570    0.1340 c3        1 MOL      0.160221
     40 C14         6.5230   -4.4630    0.6410 c         1 MOL      0.487591
     41 O6          7.0230   -5.5910    0.6930 o         1 MOL     -0.586688
     42 C15         8.2090   -2.6760    1.2260 c3        1 MOL     -0.292865
     43 C16         8.9570   -1.3900    0.9420 c         1 MOL      0.735289
     44 O7          9.3110   -1.0440   -0.1980 o         1 MOL     -0.726776
     45 O8          9.2280   -0.6290    1.9180 o         1 MOL     -0.726776
     46 H19         6.3890   -1.3130   -0.1440 hn        1 MOL      0.275862
     47 H20         8.1230   -3.6520   -0.5470 h1        1 MOL      0.039256
     48 H21         8.8890   -3.4490    1.5760 hc        1 MOL      0.072927
     49 H22         7.5120   -2.4560    2.0440 hc        1 MOL      0.072927
     50 N4          5.2270   -4.4480    0.9490 n         1 MOL     -0.459135
     51 C17         4.3570   -3.3100    1.4430 c3        1 MOL      0.039542
     52 C18         4.4210   -2.8520    2.9240 c         1 MOL      0.501562
     53 O9          5.3670   -3.1460    3.6770 o         1 MOL     -0.551609
     54 H23         4.8650   -5.3880    1.0530 hn        1 MOL      0.299659
     55 H24         3.3140   -3.4710    1.1610 h1        1 MOL      0.018822
     56 H25         4.6540   -2.3910    0.9320 h1        1 MOL      0.018822
     57 N5          3.4440   -2.1610    3.4660 n         1 MOL     -0.402569
     58 C19         2.1600   -1.7390    2.8870 c3        1 MOL      0.216609
     59 C20         2.1550   -0.8400    1.7190 c         1 MOL      0.311342
     60 O10         3.1520   -0.2070    1.3610 o         1 MOL     -0.268565
     61 C21         1.3130   -1.0890    4.0130 c3        1 MOL     -0.337904
     62 C22         2.0640   -0.1910    5.0100 c         1 MOL      0.830618
     63 O11         2.6070   -0.6940    5.9850 o         1 MOL     -0.712505
     64 O12         2.0490    1.0240    4.7930 o         1 MOL     -0.712505
     65 H26         3.5080   -1.9770    4.4560 hn        1 MOL      0.274568
     66 H27         1.5990   -2.6510    2.6640 h1        1 MOL      0.013713
     67 H28         0.9470   -1.8850    4.6660 hc        1 MOL      0.056382
     68 H29         0.4830   -0.5740    3.5360 hc        1 MOL      0.056382
     69 N6          1.0980   -0.7000    0.9170 n         1 MOL     -0.426373
     70 C23        -0.2130   -1.3740    0.9480 c3        1 MOL      0.139942
     71 C24        -0.2050   -2.7920    0.3310 c         1 MOL      0.440784
     72 O13         0.8450   -3.3970    0.0290 o         1 MOL     -0.510004
     73 H30         1.2250   -0.0460    0.1580 hn        1 MOL      0.281925
     74 H31        -1.0400   -0.8480    0.4810 h1        1 MOL     -0.007919
     75 H32        -0.5880   -1.5020    1.9580 h1        1 MOL     -0.007919
     76 N7         -1.3940   -3.3100    0.2440 n         1 MOL     -0.265983
     77 C25        -1.7300   -4.6550   -0.2050 c3        1 MOL     -0.140411
     78 C26        -2.1090   -4.6790   -1.6910 c         1 MOL      0.486904
     79 O14        -2.1060   -5.7590   -2.3070 o         1 MOL     -0.516038
     80 C27        -2.9500   -5.1180    0.5990 c3        1 MOL      0.216258
     81 C28        -2.6610   -5.4270    2.0650 c3        1 MOL     -0.094099
     82 C29        -3.8080   -6.1240    2.7540 c         1 MOL      0.580027
     83 N8         -4.6610   -5.4190    3.4400 n         1 MOL     -0.730086
     84 O15        -3.9590   -7.3250    2.6090 o         1 MOL     -0.564058
     85 H33        -2.2000   -2.7780    0.5470 hn        1 MOL      0.248321
     86 H34        -0.8870   -5.3460   -0.0860 h1        1 MOL      0.141039
     87 H35        -3.2180   -6.0460    0.0830 hc        1 MOL     -0.022225
     88 H36        -3.7920   -4.4280    0.5520 hc        1 MOL     -0.022225
     89 H37        -2.2640   -4.5380    2.5530 hc        1 MOL      0.021459
     90 H38        -1.8820   -6.1920    2.1230 hc        1 MOL      0.021459
     91 H39        -4.6850   -4.4120    3.5340 hn        1 MOL      0.343751
     92 H40        -5.2930   -5.9540    4.0130 hn        1 MOL      0.343751
     93 N9         -2.6200   -3.5470   -2.2020 n         1 MOL     -0.277414
     94 C30        -3.1270   -3.3280   -3.6070 c3        1 MOL     -0.279295
     95 C31        -4.5590   -2.6120   -3.6520 c         1 MOL      0.659542
     96 O16        -5.2700   -2.8560   -4.6090 o         1 MOL     -0.566019
     97 C32        -2.0990   -2.5180   -4.4260 c3        1 MOL      0.278454
     98 C33        -0.8630   -3.3380   -4.8020 c3        1 MOL     -0.179941
     99 C34        -1.6580   -1.2570   -3.7410 c3        1 MOL     -0.179941
    100 H41        -2.3940   -2.6540   -1.8010 hn        1 MOL      0.229184
    101 H42        -3.3010   -4.2680   -4.1290 h1        1 MOL      0.150686
    102 H43        -2.6340   -2.1370   -5.3030 hc        1 MOL     -0.021795
    103 H44        -1.1470   -3.9440   -5.6650 hc        1 MOL      0.041695
    104 H45        -0.0220   -2.7040   -5.0850 hc        1 MOL      0.041695
    105 H46        -0.4910   -3.9970   -4.0290 hc        1 MOL      0.041695
    106 H47        -2.4890   -0.6330   -3.3990 hc        1 MOL      0.041695
    107 H48        -1.0260   -1.5600   -2.9000 hc        1 MOL      0.041695
    108 H49        -1.1020   -0.6480   -4.4470 hc        1 MOL      0.041695
    109 N10        -5.0440   -1.9050   -2.6270 n         1 MOL     -0.448063
    110 C35        -6.3730   -1.2810   -2.5690 c3        1 MOL      0.140428
    111 C36        -6.4660    0.0940   -1.9140 c         1 MOL      0.524155
    112 O17        -6.9660    1.0510   -2.4990 o         1 MOL     -0.564716
    113 C37        -7.4150   -2.2790   -2.0270 c3        1 MOL     -0.335138
    114 C38        -7.1420   -2.7670   -0.6020 c         1 MOL      0.636301
    115 N11        -8.1150   -3.4480    0.0110 n         1 MOL     -0.804833
    116 O18        -6.1470   -2.5030    0.0900 o         1 MOL     -0.513868
    117 H50        -4.5120   -1.9100   -1.7770 hn        1 MOL      0.165376
    118 H51        -6.6010   -1.1530   -3.6290 h1        1 MOL      0.067699
    119 H52        -7.5490   -3.1410   -2.6790 hc        1 MOL      0.126992
    120 H53        -8.3560   -1.7260   -2.0210 hc        1 MOL      0.126992
    121 H54        -9.0430   -3.4160   -0.3730 hn        1 MOL      0.370713
    122 H55        -7.9980   -3.7530    0.9740 hn        1 MOL      0.370713
    123 N12        -6.0040    0.3040   -0.6690 n         1 MOL     -0.423960
    124 C39        -6.2150    1.5530    0.1250 c3        1 MOL      0.146497
    125 C40        -4.9780    2.3670    0.5470 c         1 MOL      0.491652
    126 O19        -3.8720    1.7720    0.7070 o         1 MOL     -0.507378
    127 C41        -6.9470    1.1840    1.4370 c3        1 MOL      0.020473
    128 C42        -8.3010    0.6630    1.1970 ca        1 MOL      0.016961
    129 C43        -8.6280   -0.6560    1.6370 ca        1 MOL     -0.128939
    130 C44        -9.3290    1.3860    0.5200 ca        1 MOL     -0.128939
    131 C45        -9.8810   -1.2400    1.3890 ca        1 MOL     -0.252525
    132 C46       -10.6050    0.8150    0.3370 ca        1 MOL     -0.252525
    133 C47       -10.8700   -0.4940    0.7080 ca        1 MOL      0.307124
    134 O20       -12.0610   -1.1030    0.5280 oh        1 MOL     -0.513510
    135 H56        -5.4280   -0.4210   -0.2340 hn        1 MOL      0.268104
    136 H57        -6.8900    2.2230   -0.4070 h1        1 MOL      0.052844
    137 H58        -6.9400    1.9790    2.1820 hc        1 MOL      0.020602
    138 H59        -6.4430    0.2960    1.8190 hc        1 MOL      0.020602
    139 H60        -7.8820   -1.3150    2.0580 ha        1 MOL      0.125693
    140 H61        -9.1990    2.3650    0.0880 ha        1 MOL      0.125693
    141 H62        -9.9940   -2.2550    1.7500 ha        1 MOL      0.130668
    142 H63       -11.3310    1.4740   -0.1100 ha        1 MOL      0.130668
    143 H64       -12.6390   -0.4490    0.1350 ho        1 MOL      0.371986
    144 N13        -5.1120    3.6890    0.8270 n         1 MOL     -0.621573
    145 C48        -4.0560    4.5290    1.3760 c3        1 MOL      0.130096
    146 C49        -2.9130    4.9620    0.4310 c         1 MOL      0.353186
    147 O21        -2.1350    5.7770    0.8730 o         1 MOL     -0.479507
    148 C50        -3.4230    3.9850    2.6820 c3        1 MOL     -0.108806
    149 C51        -4.3840    3.7250    3.8200 c3        1 MOL     -0.009446
    150 C52        -5.1060    4.9750    4.2410 c         1 MOL      0.663389
    151 O22        -6.2880    5.1300    3.9080 o         1 MOL     -0.727547
    152 O23        -4.4990    5.6690    5.1150 o         1 MOL     -0.727547
    153 H65        -5.9920    4.1380    0.6350 hn        1 MOL      0.329455
    154 H66        -4.5970    5.4210    1.6830 h1        1 MOL      0.085001
    155 H67        -2.8280    4.7430    3.1820 hc        1 MOL      0.074106
    156 H68        -2.8150    3.0950    2.4860 hc        1 MOL      0.074106
    157 H69        -3.8360    3.3590    4.6880 hc        1 MOL     -0.015647
    158 H70        -5.0700    2.9410    3.4850 hc        1 MOL     -0.015647
    159 N14        -2.7580    4.4000   -0.7960 n         1 MOL     -0.344922
    160 C53        -1.5070    4.5730   -1.6450 c3        1 MOL      0.049509
    161 C54        -1.8630    5.2230   -2.9940 c         1 MOL      0.432452
    162 O24        -0.9560    5.8190   -3.6050 o         1 MOL     -0.532976
    163 C55        -0.8210    3.2370   -1.8270 c3        1 MOL     -0.097129
    164 C56        -0.3720    2.4390   -0.6730 c3        1 MOL      0.313345
    165 C57         1.0830    2.7590   -0.2000 c         1 MOL      0.548400
    166 O25         1.3840    3.7700    0.4480 o         1 MOL     -0.634751
    167 O26         1.9390    1.9330   -0.3790 o         1 MOL     -0.634751
    168 H71        -3.5230    3.7680   -0.9840 hn        1 MOL      0.218532
    169 H72        -0.8220    5.2390   -1.1320 h1        1 MOL      0.116182
    170 H73         0.0380    3.4290   -2.4600 hc        1 MOL     -0.002944
    171 H74        -1.5520    2.6470   -2.3730 hc        1 MOL     -0.002944
    172 H75        -0.4320    1.4110   -1.0380 hc        1 MOL     -0.088566
    173 H76        -1.1040    2.5020    0.1280 hc        1 MOL     -0.088566
    174 N15        -3.0760    5.3050   -3.4490 n         1 MOL     -0.199365
    175 C58        -3.5410    6.0730   -4.5160 c3        1 MOL     -0.235356
    176 H77        -4.5600    5.7730   -4.7610 h1        1 MOL      0.097318
    177 H78        -3.5290    7.1260   -4.2390 h1        1 MOL      0.097318
    178 H79        -2.8980    5.9170   -5.3830 h1        1 MOL      0.097318
    179 H80        -3.7940    5.0080   -2.8130 hn        1 MOL      0.208279
    180 Ca1         4.2690    2.2380    0.6500 Ca        1 MOL      1.669416
    181 O27         3.0500    2.6740    2.9730 oh        1 MOL     -0.931303
    182 H81         2.8230    1.9720    3.5840 ho        1 MOL      0.425472
    183 H82         2.8600    3.4750    3.4520 ho        1 MOL      0.425472
    184 O28         5.5340    0.8840    2.7230 oh        1 MOL     -0.931303
    185 H83         6.4500    1.1370    2.5630 ho        1 MOL      0.425472
    186 H84         5.5240    0.5920    3.6280 ho        1 MOL      0.425472
    187 O29         3.5920    4.8870    0.5810 oh        1 MOL     -0.931303
    188 H85         2.6810    4.6790    0.3800 ho        1 MOL      0.425472
    189 H86         3.5730    5.2210    1.4770 ho        1 MOL      0.425472
@<TRIPOS>BOND
     1    1    2 1   
     2    1    4 1   
     3    1    5 1   
     4    1    6 1   
     5    2    3 2   
     6    2    7 1   
     7    7    8 1   
     8    7   15 1   
     9    8    9 1   
    10    8   11 1   
    11    8   16 1   
    12    9   10 2   
    13    9   19 1   
    14   11   12 1   
    15   11   17 1   
    16   11   18 1   
    17   12   13 1   
    18   12   14 1   
    19   19   20 1   
    20   19   27 1   
    21   20   21 1   
    22   20   23 1   
    23   20   28 1   
    24   21   22 2   
    25   21   38 1   
    26   23   24 1   
    27   23   25 1   
    28   23   29 1   
    29   24   26 1   
    30   24   30 1   
    31   24   31 1   
    32   25   32 1   
    33   25   33 1   
    34   25   34 1   
    35   26   35 1   
    36   26   36 1   
    37   26   37 1   
    38   38   39 1   
    39   38   46 1   
    40   39   40 1   
    41   39   42 1   
    42   39   47 1   
    43   40   41 2   
    44   40   50 1   
    45   42   43 1   
    46   42   48 1   
    47   42   49 1   
    48   43   44 1   
    49   43   45 1   
    50   50   51 1   
    51   50   54 1   
    52   51   52 1   
    53   51   55 1   
    54   51   56 1   
    55   52   53 2   
    56   52   57 1   
    57   57   58 1   
    58   57   65 1   
    59   58   59 1   
    60   58   61 1   
    61   58   66 1   
    62   59   60 2   
    63   59   69 1   
    64   61   62 1   
    65   61   67 1   
    66   61   68 1   
    67   62   63 1   
    68   62   64 1   
    69   69   70 1   
    70   69   73 1   
    71   70   71 1   
    72   70   74 1   
    73   70   75 1   
    74   71   72 2   
    75   71   76 1   
    76   76   77 1   
    77   76   85 1   
    78   77   78 1   
    79   77   80 1   
    80   77   86 1   
    81   78   79 2   
    82   78   93 1   
    83   80   81 1   
    84   80   87 1   
    85   80   88 1   
    86   81   82 1   
    87   81   89 1   
    88   81   90 1   
    89   82   83 1   
    90   82   84 2   
    91   83   91 1   
    92   83   92 1   
    93   93   94 1   
    94   93  100 1   
    95   94   95 1   
    96   94   97 1   
    97   94  101 1   
    98   95   96 2   
    99   95  109 1   
   100   97   98 1   
   101   97   99 1   
   102   97  102 1   
   103   98  103 1   
   104   98  104 1   
   105   98  105 1   
   106   99  106 1   
   107   99  107 1   
   108   99  108 1   
   109  109  110 1   
   110  109  117 1   
   111  110  111 1   
   112  110  113 1   
   113  110  118 1   
   114  111  112 2   
   115  111  123 1   
   116  113  114 1   
   117  113  119 1   
   118  113  120 1   
   119  114  115 1   
   120  114  116 2   
   121  115  121 1   
   122  115  122 1   
   123  123  124 1   
   124  123  135 1   
   125  124  125 1   
   126  124  127 1   
   127  124  136 1   
   128  125  126 2   
   129  125  144 1   
   130  127  128 1   
   131  127  137 1   
   132  127  138 1   
   133  128  129 ar  
   134  128  130 ar  
   135  129  131 ar  
   136  129  139 1   
   137  130  132 ar  
   138  130  140 1   
   139  131  133 ar  
   140  131  141 1   
   141  132  133 ar  
   142  132  142 1   
   143  133  134 1   
   144  134  143 1   
   145  144  145 1   
   146  144  153 1   
   147  145  146 1   
   148  145  148 1   
   149  145  154 1   
   150  146  147 2   
   151  146  159 1   
   152  148  149 1   
   153  148  155 1   
   154  148  156 1   
   155  149  150 1   
   156  149  157 1   
   157  149  158 1   
   158  150  151 1   
   159  150  152 1   
   160  159  160 1   
   161  159  168 1   
   162  160  161 1   
   163  160  163 1   
   164  160  169 1   
   165  161  162 2   
   166  161  174 1   
   167  163  164 1   
   168  163  170 1   
   169  163  171 1   
   170  164  165 1   
   171  164  172 1   
   172  164  173 1   
   173  165  166 1   
   174  165  167 1   
   175  174  175 1   
   176  174  179 1   
   177  175  176 1   
   178  175  177 1   
   179  175  178 1   
   180  181  182 1   
   181  181  183 1   
   182  184  185 1   
   183  184  186 1   
   184  187  188 1   
   185  187  189 1   
@<TRIPOS>SUBSTRUCTURE
     1 MOL         1 TEMP              0 ****  ****    0 ROOT
