@<TRIPOS>MOLECULE
MOL
  186   183     1     0     0
SMALL
resp


@<TRIPOS>ATOM
      1 C1         11.4510    4.1680   -4.3070 c3        1 MOL     -0.451626
      2 C2         11.1250    3.4580   -2.9240 c         1 MOL      0.688377
      3 O1         11.3360    2.2800   -2.9040 o         1 MOL     -0.553566
      4 H1         11.2570    5.2370   -4.2210 hc        1 MOL      0.116905
      5 H2         12.4990    4.0080   -4.5590 hc        1 MOL      0.116905
      6 H3         10.8200    3.7470   -5.0900 hc        1 MOL      0.116905
      7 N1         10.7200    4.1070   -1.8400 n         1 MOL     -0.353736
      8 C3         10.4970    3.5410   -0.4980 c3        1 MOL     -0.527473
      9 C4          9.3860    2.4860   -0.4280 c         1 MOL      0.765451
     10 O2          8.3290    2.6150   -1.0490 o         1 MOL     -0.801599
     11 C5         10.3430    4.6660    0.5480 c3        1 MOL      0.036597
     12 C6          9.2520    5.7410    0.2610 c         1 MOL      0.697012
     13 O3          8.3720    5.4390   -0.5680 o         1 MOL     -0.709241
     14 O4          9.2660    6.8230    0.8630 o         1 MOL     -0.709241
     15 H4         10.6240    5.1120   -1.7860 hn        1 MOL      0.273588
     16 H5         11.3980    2.9520   -0.3140 h1        1 MOL      0.158065
     17 H6         11.3300    5.1280    0.5790 hc        1 MOL      0.053344
     18 H7         10.1300    4.1440    1.4880 hc        1 MOL      0.053344
     19 N2          9.6550    1.4660    0.4000 n         1 MOL     -0.142583
     20 C7          9.1830    0.0690    0.2860 c3        1 MOL     -0.497491
     21 C8          7.6780   -0.1650    0.3310 c         1 MOL      0.837882
     22 O5          7.2000   -1.2660    0.0940 o         1 MOL     -0.615174
     23 C9          9.9040   -0.7790    1.3040 c3        1 MOL     -0.023805
     24 C10         9.4660   -0.5790    2.8020 c3        1 MOL      0.045970
     25 C11        10.2790   -1.4730    3.8180 c3        1 MOL     -0.276000
     26 C12        10.6190   -0.6700    5.0250 c3        1 MOL      0.135506
     27 N3         11.1590   -1.4820    6.1650 n4        1 MOL     -0.419699
     28 H8         10.3310    1.5880    1.1350 hn        1 MOL      0.204674
     29 H9          9.3770   -0.3350   -0.7080 h1        1 MOL      0.193183
     30 H10        10.9930   -0.7110    1.2000 hc        1 MOL      0.055359
     31 H11         9.8360   -1.8400    1.0880 hc        1 MOL      0.055359
     32 H12         8.4010   -0.8130    2.8400 hc        1 MOL      0.029314
     33 H13         9.6210    0.4910    2.9240 hc        1 MOL      0.029314
     34 H14        11.0560   -2.0680    3.3340 hc        1 MOL      0.118618
     35 H15         9.6450   -2.2890    4.1570 hc        1 MOL      0.118618
     36 H16         9.8500    0.0120    5.4040 hx        1 MOL      0.064207
     37 H17        11.4470    0.0150    4.8020 hx        1 MOL      0.064207
     38 H18        10.4240   -2.0140    6.6030 hn        1 MOL      0.304613
     39 H19        11.9650   -2.0160    5.8690 hn        1 MOL      0.304613
     40 H20        11.3360   -0.8540    6.9260 hn        1 MOL      0.304613
     41 N4          6.8580    0.8240    0.7480 n         1 MOL      0.018624
     42 C13         5.3950    0.7670    0.8980 c3        1 MOL     -0.944172
     43 C14         4.5910    1.0040   -0.3700 c         1 MOL      0.773015
     44 O6          4.9880    1.7770   -1.2510 o         1 MOL     -0.686056
     45 C15         4.9550    1.7100    2.0280 c3        1 MOL      0.095524
     46 C16         5.4310    3.1890    1.9230 c         1 MOL      0.474406
     47 O7          5.1590    3.8420    2.9240 o         1 MOL     -0.604739
     48 O8          6.1840    3.6470    1.0320 o         1 MOL     -0.604739
     49 H21         7.2360    1.7540    0.7980 hn        1 MOL      0.126529
     50 H22         5.3010   -0.2590    1.2560 h1        1 MOL      0.301792
     51 H23         5.2530    1.2110    2.9520 hc        1 MOL      0.070206
     52 H24         3.8630    1.7490    2.1050 hc        1 MOL      0.070206
     53 N5          3.3850    0.4730   -0.5170 n         1 MOL     -0.315710
     54 C17         2.7630   -0.5380    0.3940 c3        1 MOL     -0.052354
     55 C18         3.4610   -1.9050    0.3520 c         1 MOL      0.807114
     56 O9          4.0040   -2.2750   -0.6680 o         1 MOL     -0.586278
     57 H25         2.8160    0.7390   -1.3150 hn        1 MOL      0.183935
     58 H26         1.7010   -0.7400    0.2280 h1        1 MOL      0.068738
     59 H27         2.8150   -0.1580    1.4110 h1        1 MOL      0.068738
     60 N6          3.2830   -2.7150    1.4020 n         1 MOL     -0.663628
     61 C19         3.8210   -4.0400    1.5980 c3        1 MOL      0.029049
     62 C20         2.8370   -5.0920    1.2430 c         1 MOL      0.603451
     63 O10         1.6730   -5.0100    1.6280 o         1 MOL     -0.466354
     64 C21         4.4690   -4.2970    2.9610 c3        1 MOL     -0.224292
     65 C22         3.4680   -4.2270    4.1010 c         1 MOL      0.704268
     66 O11         3.1150   -5.2410    4.7960 o         1 MOL     -0.654418
     67 O12         3.0970   -3.0900    4.4020 o         1 MOL     -0.654418
     68 H28         2.6190   -2.3290    2.0600 hn        1 MOL      0.312838
     69 H29         4.6390   -4.0310    0.8790 h1        1 MOL      0.082134
     70 H30         5.2490   -3.5710    3.1900 hc        1 MOL      0.047163
     71 H31         4.9490   -5.2790    2.9680 hc        1 MOL      0.047163
     72 N7          3.2870   -6.1400    0.4670 n         1 MOL     -0.488429
     73 C23         2.3960   -7.2770   -0.0030 c3        1 MOL     -0.077699
     74 C24         1.4210   -6.9100   -1.1240 c         1 MOL      0.476030
     75 O13         1.0180   -7.8390   -1.8480 o         1 MOL     -0.557464
     76 H32         4.2260   -6.0860    0.1050 hn        1 MOL      0.294120
     77 H33         1.8780   -7.7570    0.8260 h1        1 MOL      0.112997
     78 H34         2.9880   -8.0830   -0.4460 h1        1 MOL      0.112997
     79 N8          1.1560   -5.6410   -1.3520 n         1 MOL     -0.029572
     80 C25         0.2850   -5.0530   -2.3280 c3        1 MOL     -0.422722
     81 C26         0.0830   -3.5550   -1.9870 c         1 MOL      0.862193
     82 O14         0.9660   -2.9550   -1.4070 o         1 MOL     -0.479058
     83 C27         0.8630   -5.1060   -3.7360 c3        1 MOL      0.240060
     84 C28         2.2380   -4.5290   -3.9460 c3        1 MOL     -0.091206
     85 O15         1.1000   -6.4000   -4.1270 oh        1 MOL     -0.591705
     86 H35         1.3990   -5.0040   -0.6150 hn        1 MOL      0.066531
     87 H36        -0.6720   -5.5790   -2.3090 h1        1 MOL      0.152041
     88 H37         0.2440   -4.7040   -4.5280 h1        1 MOL      0.057508
     89 H38         1.0160   -6.8840   -3.2980 ho        1 MOL      0.385161
     90 H39         3.0440   -4.9170   -3.3330 hc        1 MOL      0.027130
     91 H40         2.5260   -4.6260   -4.9920 hc        1 MOL      0.027130
     92 H41         2.1970   -3.4490   -3.8220 hc        1 MOL      0.027130
     93 N9         -1.1010   -2.9450   -2.2600 n         1 MOL     -0.793129
     94 C29        -1.4600   -1.5730   -2.0880 c3        1 MOL      0.073442
     95 C30        -2.7190   -1.1670   -1.2710 c         1 MOL      0.631800
     96 O16        -2.9250    0.0110   -1.0010 o         1 MOL     -0.537106
     97 C31        -1.3060   -0.7980   -3.3960 c3        1 MOL      0.148696
     98 C32        -1.1070    0.7240   -3.4190 c3        1 MOL     -0.184576
     99 C33        -2.4360   -1.1640   -4.3220 c3        1 MOL     -0.477149
    100 C34         0.2240    1.1010   -2.7490 c3        1 MOL     -0.105703
    101 H42        -1.7590   -3.5920   -2.6560 hn        1 MOL      0.326359
    102 H43        -0.6160   -1.2300   -1.4940 h1        1 MOL      0.051544
    103 H44        -0.3930   -1.1410   -3.8810 hc        1 MOL      0.054937
    104 H45        -1.9800    1.1440   -2.9230 hc        1 MOL      0.081036
    105 H46        -0.9830    0.9880   -4.4690 hc        1 MOL      0.081036
    106 H47        -2.4230   -2.2420   -4.5320 hc        1 MOL      0.117800
    107 H48        -3.4150   -0.9290   -3.9070 hc        1 MOL      0.117800
    108 H49        -2.3010   -0.7340   -5.3180 hc        1 MOL      0.117800
    109 H50         0.3670    2.1820   -2.7830 hc        1 MOL      0.040883
    110 H51         0.2380    0.7990   -1.6980 hc        1 MOL      0.040883
    111 H52         1.0060    0.5680   -3.2950 hc        1 MOL      0.040883
    112 N10        -3.5060   -2.1370   -0.9160 n         1 MOL     -0.475327
    113 C35        -4.6640   -1.9130    0.0030 c3        1 MOL     -0.161486
    114 C36        -5.9220   -2.3860   -0.6560 c         1 MOL      0.764016
    115 O17        -5.8520   -3.3670   -1.4490 o         1 MOL     -0.588833
    116 C37        -4.4920   -2.6200    1.3910 c3        1 MOL      0.296307
    117 C38        -5.7150   -2.4040    2.3340 c3        1 MOL     -0.129064
    118 O18        -4.3480   -4.0170    1.3180 oh        1 MOL     -0.540312
    119 H53        -3.3080   -3.0890   -1.1900 hn        1 MOL      0.322020
    120 H54        -4.7840   -0.8600    0.2630 h1        1 MOL      0.113760
    121 H55        -3.7110   -2.0790    1.9270 h1        1 MOL      0.027428
    122 H56        -3.8830   -4.1200    0.4820 ho        1 MOL      0.341407
    123 H57        -5.3860   -2.5260    3.3740 hc        1 MOL      0.044414
    124 H58        -6.1130   -1.3910    2.3190 hc        1 MOL      0.044414
    125 H59        -6.5140   -3.1060    2.1190 hc        1 MOL      0.044414
    126 N11        -7.0960   -1.7560   -0.4670 n         1 MOL     -0.617153
    127 C39        -8.3860   -2.1390   -1.0700 c3        1 MOL     -0.042342
    128 C40        -9.2400   -0.9830   -1.2470 c         1 MOL      0.758067
    129 O19        -9.7990   -0.8630   -2.2960 o         1 MOL     -0.591276
    130 C41        -9.0480   -3.2270   -0.1710 c3        1 MOL      0.292664
    131 C42       -10.4800   -3.6270   -0.4650 c3        1 MOL     -0.479626
    132 O20        -8.9990   -2.8040    1.1730 oh        1 MOL     -0.643802
    133 H60        -7.1050   -1.1220    0.3160 hn        1 MOL      0.273410
    134 H61        -8.1330   -2.6460   -1.9990 h1        1 MOL      0.119405
    135 H62        -8.4090   -4.1110   -0.1940 h1        1 MOL      0.054568
    136 H63        -9.1130   -3.5970    1.7040 ho        1 MOL      0.424340
    137 H64       -11.1590   -2.7900   -0.2960 hc        1 MOL      0.129061
    138 H65       -10.6190   -3.9450   -1.4930 hc        1 MOL      0.129061
    139 H66       -10.7430   -4.4330    0.2050 hc        1 MOL      0.129061
    140 N12        -9.3230   -0.1030   -0.2590 n         1 MOL     -0.469510
    141 C43       -10.0550    1.1060   -0.2710 c3        1 MOL     -0.099738
    142 C44        -9.6860    2.1400    0.7300 c         1 MOL      0.643700
    143 O21        -9.3090    1.8610    1.8840 o         1 MOL     -0.555410
    144 C45       -11.6130    0.7520   -0.1400 c3        1 MOL     -0.395240
    145 C46       -12.2420    0.2930    1.1570 c3        1 MOL      0.070168
    146 C47       -13.7270    0.0060    0.9890 c3        1 MOL     -0.013076
    147 C48       -14.2390   -0.4550    2.3360 c3        1 MOL      0.076738
    148 N13       -15.7010   -0.6490    2.3700 n4        1 MOL     -0.116084
    149 H67        -9.1460   -0.4530    0.6750 hn        1 MOL      0.317330
    150 H68        -9.8640    1.6000   -1.2200 h1        1 MOL      0.144208
    151 H69       -12.0050    0.0600   -0.8870 hc        1 MOL      0.130280
    152 H70       -11.9990    1.7300   -0.4240 hc        1 MOL      0.130280
    153 H71       -12.1310    1.1410    1.8250 hc        1 MOL      0.032265
    154 H72       -11.6980   -0.5340    1.6240 hc        1 MOL      0.032265
    155 H73       -13.8560   -0.7830    0.2500 hc        1 MOL      0.025957
    156 H74       -14.2820    0.8520    0.5990 hc        1 MOL      0.025957
    157 H75       -13.9870    0.1660    3.1930 hx        1 MOL      0.042459
    158 H76       -13.9420   -1.4990    2.4780 hx        1 MOL      0.042459
    159 H77       -16.1650    0.2290    2.1920 hn        1 MOL      0.198701
    160 H78       -15.8900   -1.2850    1.6080 hn        1 MOL      0.198701
    161 H79       -16.0580   -1.0780    3.2170 hn        1 MOL      0.198701
    162 N14        -9.6520    3.3540    0.2510 n         1 MOL     -0.436385
    163 C49        -9.1340    4.5530    0.8610 c3        1 MOL      0.206028
    164 C50        -7.5930    4.5600    0.9350 c         1 MOL      0.302499
    165 O22        -7.0900    4.9010    2.0520 o         1 MOL     -0.496954
    166 C51        -9.6030    5.8500    0.1380 c3        1 MOL     -0.212130
    167 C52        -9.2480    7.1030    1.0350 c3        1 MOL     -0.162392
    168 C53       -10.1130    8.3590    0.7880 c         1 MOL      0.731028
    169 O23       -11.0890    8.5920    1.4930 o         1 MOL     -0.652957
    170 O24        -9.7780    9.1240   -0.1110 o         1 MOL     -0.652957
    171 H80       -10.0520    3.4530   -0.6730 hn        1 MOL      0.224847
    172 H81        -9.5810    4.6000    1.8600 h1        1 MOL      0.082241
    173 H82       -10.6950    5.8400    0.2000 hc        1 MOL      0.075158
    174 H83        -9.2960    6.0950   -0.8720 hc        1 MOL      0.075158
    175 H84        -8.1850    7.3350    0.9330 hc        1 MOL      0.048681
    176 H85        -9.3150    6.7940    2.0810 hc        1 MOL      0.048681
    177 N15        -6.7730    4.3190   -0.1350 n         1 MOL     -0.252637
    178 C54        -7.0060    4.0220   -1.5730 c3        1 MOL     -0.145710
    179 H86        -7.6180    3.1250   -1.6650 h1        1 MOL      0.086473
    180 H87        -7.5200    4.8620   -2.0400 h1        1 MOL      0.086473
    181 H88        -6.0490    3.8600   -2.0710 h1        1 MOL      0.086473
    182 H89        -5.7860    4.3610    0.0870 hn        1 MOL      0.268401
    183 Ca1         6.3260    4.3070   -1.5120 Ca        1 MOL      1.739577
    184 O25         7.4330    2.9380   -3.5330 oh        1 MOL     -0.869160
    185 H90         7.4630    2.6900   -4.4650 ho        1 MOL      0.450199
    186 H91         7.9750    2.2780   -3.0990 ho        1 MOL      0.450199
@<TRIPOS>BOND
     1    1    2 1   
     2    1    4 1   
     3    1    5 1   
     4    1    6 1   
     5    2    3 2   
     6    2    7 1   
     7    7    8 1   
     8    7   15 1   
     9    8    9 1   
    10    8   11 1   
    11    8   16 1   
    12    9   10 2   
    13    9   19 1   
    14   11   12 1   
    15   11   17 1   
    16   11   18 1   
    17   12   13 1   
    18   12   14 1   
    19   19   20 1   
    20   19   28 1   
    21   20   21 1   
    22   20   23 1   
    23   20   29 1   
    24   21   22 2   
    25   21   41 1   
    26   23   24 1   
    27   23   30 1   
    28   23   31 1   
    29   24   25 1   
    30   24   32 1   
    31   24   33 1   
    32   25   26 1   
    33   25   34 1   
    34   25   35 1   
    35   26   27 1   
    36   26   36 1   
    37   26   37 1   
    38   27   38 1   
    39   27   39 1   
    40   27   40 1   
    41   41   42 1   
    42   41   49 1   
    43   42   43 1   
    44   42   45 1   
    45   42   50 1   
    46   43   44 2   
    47   43   53 1   
    48   45   46 1   
    49   45   51 1   
    50   45   52 1   
    51   46   47 1   
    52   46   48 1   
    53   53   54 1   
    54   53   57 1   
    55   54   55 1   
    56   54   58 1   
    57   54   59 1   
    58   55   56 2   
    59   55   60 1   
    60   60   61 1   
    61   60   68 1   
    62   61   62 1   
    63   61   64 1   
    64   61   69 1   
    65   62   63 2   
    66   62   72 1   
    67   64   65 1   
    68   64   70 1   
    69   64   71 1   
    70   65   66 1   
    71   65   67 1   
    72   72   73 1   
    73   72   76 1   
    74   73   74 1   
    75   73   77 1   
    76   73   78 1   
    77   74   75 2   
    78   74   79 1   
    79   79   80 1   
    80   79   86 1   
    81   80   81 1   
    82   80   83 1   
    83   80   87 1   
    84   81   82 2   
    85   81   93 1   
    86   83   84 1   
    87   83   85 1   
    88   83   88 1   
    89   84   90 1   
    90   84   91 1   
    91   84   92 1   
    92   85   89 1   
    93   93   94 1   
    94   93  101 1   
    95   94   95 1   
    96   94   97 1   
    97   94  102 1   
    98   95   96 2   
    99   95  112 1   
   100   97   98 1   
   101   97   99 1   
   102   97  103 1   
   103   98  100 1   
   104   98  104 1   
   105   98  105 1   
   106   99  106 1   
   107   99  107 1   
   108   99  108 1   
   109  100  109 1   
   110  100  110 1   
   111  100  111 1   
   112  112  113 1   
   113  112  119 1   
   114  113  114 1   
   115  113  116 1   
   116  113  120 1   
   117  114  115 2   
   118  114  126 1   
   119  116  117 1   
   120  116  118 1   
   121  116  121 1   
   122  117  123 1   
   123  117  124 1   
   124  117  125 1   
   125  118  122 1   
   126  126  127 1   
   127  126  133 1   
   128  127  128 1   
   129  127  130 1   
   130  127  134 1   
   131  128  129 2   
   132  128  140 1   
   133  130  131 1   
   134  130  132 1   
   135  130  135 1   
   136  131  137 1   
   137  131  138 1   
   138  131  139 1   
   139  132  136 1   
   140  140  141 1   
   141  140  149 1   
   142  141  142 1   
   143  141  144 1   
   144  141  150 1   
   145  142  143 2   
   146  142  162 1   
   147  144  145 1   
   148  144  151 1   
   149  144  152 1   
   150  145  146 1   
   151  145  153 1   
   152  145  154 1   
   153  146  147 1   
   154  146  155 1   
   155  146  156 1   
   156  147  148 1   
   157  147  157 1   
   158  147  158 1   
   159  148  159 1   
   160  148  160 1   
   161  148  161 1   
   162  162  163 1   
   163  162  171 1   
   164  163  164 1   
   165  163  166 1   
   166  163  172 1   
   167  164  165 2   
   168  164  177 1   
   169  166  167 1   
   170  166  173 1   
   171  166  174 1   
   172  167  168 1   
   173  167  175 1   
   174  167  176 1   
   175  168  169 1   
   176  168  170 1   
   177  177  178 1   
   178  177  182 1   
   179  178  179 1   
   180  178  180 1   
   181  178  181 1   
   182  184  185 1   
   183  184  186 1   
@<TRIPOS>SUBSTRUCTURE
     1 MOL         1 TEMP              0 ****  ****    0 ROOT
