@<TRIPOS>MOLECULE
MOL
  182   178     1     0     0
SMALL
resp


@<TRIPOS>ATOM
      1 C1          0.6080   -4.4770    5.6110 c3        1 MOL     -0.427294
      2 C2          0.8900   -4.2330    4.1440 c         1 MOL      0.779801
      3 O1          0.0650   -4.4980    3.3040 o         1 MOL     -0.635317
      4 H1          1.5260   -4.3450    6.1830 hc        1 MOL      0.114027
      5 H2         -0.1420   -3.7680    5.9600 hc        1 MOL      0.114027
      6 H3          0.2390   -5.4940    5.7460 hc        1 MOL      0.114027
      7 N1          2.0930   -3.7830    3.8000 n         1 MOL     -0.580297
      8 C3          2.4130   -3.2380    2.4820 c3        1 MOL     -0.034621
      9 C4          2.7470   -4.3410    1.4920 c         1 MOL      0.607658
     10 O2          3.7830   -5.0110    1.6610 o         1 MOL     -0.519662
     11 C5          3.5030   -2.2380    2.6700 c3        1 MOL     -0.133562
     12 C6          3.6140   -1.3970    1.3430 c         1 MOL      0.281851
     13 O3          4.2860   -0.3110    1.3170 o         1 MOL     -0.597324
     14 O4          3.0110   -1.8110    0.3030 o         1 MOL     -0.597324
     15 H4          2.8270   -3.6820    4.4960 hn        1 MOL      0.314229
     16 H5          1.5500   -2.6630    2.1440 h1        1 MOL      0.031817
     17 H6          4.3700   -2.8690    2.8910 hc        1 MOL      0.097431
     18 H7          3.3530   -1.5980    3.5390 hc        1 MOL      0.097431
     19 N2          1.9150   -4.4340    0.4620 n         1 MOL     -0.350529
     20 C7          2.1920   -5.4120   -0.6240 c3        1 MOL     -0.148407
     21 C8          3.5590   -5.2470   -1.2700 c         1 MOL      0.494245
     22 O5          4.1880   -6.2910   -1.5590 o         1 MOL     -0.545152
     23 C9          0.9950   -5.3930   -1.6520 c3        1 MOL     -0.062618
     24 C10        -0.3570   -5.8310   -1.0570 c3        1 MOL      0.064306
     25 C11        -1.5590   -5.7220   -2.0050 c3        1 MOL     -0.001815
     26 C12        -2.8520   -6.0940   -1.2370 c3        1 MOL      0.082220
     27 N3         -4.0760   -6.0960   -2.1410 n4        1 MOL     -0.306275
     28 H8          1.0530   -3.9120    0.4530 hn        1 MOL      0.312574
     29 H9          2.3380   -6.4040   -0.2150 h1        1 MOL      0.125502
     30 H10         1.2750   -6.0220   -2.4950 hc        1 MOL      0.038456
     31 H11         0.9830   -4.4150   -2.1400 hc        1 MOL      0.038456
     32 H12        -0.5780   -5.2100   -0.1930 hc        1 MOL      0.021933
     33 H13        -0.3210   -6.8660   -0.6990 hc        1 MOL      0.021933
     34 H14        -1.4470   -6.3500   -2.8850 hc        1 MOL      0.005762
     35 H15        -1.6230   -4.6640   -2.2850 hc        1 MOL      0.005762
     36 H16        -3.0790   -5.2800   -0.5430 hx        1 MOL      0.062415
     37 H17        -2.6810   -6.9670   -0.6070 hx        1 MOL      0.062415
     38 H18        -4.4400   -5.1820   -2.3320 hn        1 MOL      0.265536
     39 H19        -3.8610   -6.5120   -3.0420 hn        1 MOL      0.265536
     40 H20        -4.8180   -6.5990   -1.6790 hn        1 MOL      0.265536
     41 N4          4.0860   -4.0340   -1.4620 n         1 MOL     -0.175999
     42 C13         5.4210   -3.8010   -1.9750 c3        1 MOL      0.043163
     43 C14         6.4820   -3.2910   -1.0400 c         1 MOL      0.364489
     44 O6          7.6810   -3.2090   -1.4060 o         1 MOL     -0.548789
     45 C15         5.4010   -2.9460   -3.2530 c3        1 MOL     -0.477228
     46 C16         4.7450   -1.5240   -2.9490 c         1 MOL      0.825224
     47 O7          4.6640   -1.0630   -1.7990 o         1 MOL     -0.731193
     48 O8          4.3390   -0.8810   -3.9490 o         1 MOL     -0.731193
     49 H21         3.5200   -3.2320   -1.2140 hn        1 MOL      0.077604
     50 H22         5.7450   -4.8190   -2.1780 h1        1 MOL      0.120601
     51 H23         4.7820   -3.5170   -3.9440 hc        1 MOL      0.146894
     52 H24         6.3850   -2.7670   -3.6810 hc        1 MOL      0.146894
     53 N5          6.1850   -2.8780    0.1840 n         1 MOL     -0.013644
     54 C17         7.1270   -2.2630    1.1450 c3        1 MOL     -0.249254
     55 C18         7.5350   -0.8410    0.8010 c         1 MOL      0.594917
     56 O9          8.5330   -0.3040    1.3530 o         1 MOL     -0.582023
     57 H25         5.2090   -3.0200    0.4150 hn        1 MOL      0.084095
     58 H26         8.0560   -2.8430    1.0830 h1        1 MOL      0.119810
     59 H27         6.6910   -2.2760    2.1380 h1        1 MOL      0.119810
     60 N6          6.7980   -0.1090   -0.0470 n         1 MOL     -0.273135
     61 C19         7.2250    1.2200   -0.5270 c3        1 MOL     -0.032851
     62 C20         6.1110    2.2900   -0.5580 c         1 MOL      0.591321
     63 O10         4.9250    1.9470   -0.7130 o         1 MOL     -0.621831
     64 C21         7.8920    0.9980   -1.8760 c3        1 MOL     -0.147854
     65 C22         8.7040    2.1410   -2.3540 c         1 MOL      0.659314
     66 N7          9.3570    1.9190   -3.5310 n         1 MOL     -0.868582
     67 O11         8.8950    3.1300   -1.7000 o         1 MOL     -0.545833
     68 H28         5.9350   -0.5020   -0.3950 hn        1 MOL      0.280276
     69 H29         8.0360    1.6330    0.0610 h1        1 MOL      0.075772
     70 H30         7.1610    0.6780   -2.6190 hc        1 MOL      0.090673
     71 H31         8.5940    0.1580   -1.8480 hc        1 MOL      0.090673
     72 H32         9.2200    1.0750   -4.0630 hn        1 MOL      0.382173
     73 H33        10.0470    2.5920   -3.8360 hn        1 MOL      0.382173
     74 N8          6.4130    3.5790   -0.3310 n         1 MOL     -0.402905
     75 C23         5.3790    4.6690   -0.2290 c3        1 MOL     -0.109325
     76 C24         4.1940    4.5580    0.8250 c         1 MOL      0.586145
     77 O12         4.4550    4.3290    2.0100 o         1 MOL     -0.476151
     78 H34         7.3770    3.8600   -0.2750 hn        1 MOL      0.320488
     79 H35         4.9380    4.8590   -1.2070 h1        1 MOL      0.087069
     80 H36         5.9160    5.5720    0.0530 h1        1 MOL      0.087069
     81 N9          2.9470    4.7830    0.3490 n         1 MOL     -0.569668
     82 C25         1.7330    4.5730    1.1620 c3        1 MOL      0.112341
     83 C26         1.6290    3.0550    1.5920 c         1 MOL      0.442409
     84 O13         2.3910    2.2180    1.1710 o         1 MOL     -0.448367
     85 C27         0.5920    5.0050    0.2680 c3        1 MOL     -0.151811
     86 C28         0.5120    6.5020   -0.0470 ca        1 MOL     -0.006528
     87 C29         0.3090    7.3410    1.0370 ca        1 MOL     -0.093298
     88 C30         0.5480    7.0660   -1.4010 ca        1 MOL     -0.093298
     89 C31         0.3620    8.7490    0.8790 ca        1 MOL     -0.287554
     90 C32         0.5540    8.4320   -1.6130 ca        1 MOL     -0.287554
     91 C33         0.4470    9.2700   -0.4470 ca        1 MOL      0.333787
     92 O14         0.5740   10.5660   -0.6500 oh        1 MOL     -0.433381
     93 H37         2.7870    4.8260   -0.6490 hn        1 MOL      0.308039
     94 H38         1.7790    5.1590    2.0790 h1        1 MOL      0.085263
     95 H39        -0.3250    4.7960    0.8230 hc        1 MOL      0.051334
     96 H40         0.5650    4.3420   -0.5990 hc        1 MOL      0.051334
     97 H41         0.3520    6.9820    2.0480 ha        1 MOL      0.110542
     98 H42         0.5810    6.3180   -2.1830 ha        1 MOL      0.110542
     99 H43         0.3340    9.4260    1.7200 ha        1 MOL      0.173434
    100 H44         0.6030    8.8370   -2.6050 ha        1 MOL      0.173434
    101 H45         0.6780   11.0680    0.1630 ho        1 MOL      0.354480
    102 N10         0.6440    2.7240    2.3910 n         1 MOL     -0.480975
    103 C34         0.1250    1.3920    2.7050 c3        1 MOL      0.059630
    104 C35        -0.0930    0.5240    1.4840 c         1 MOL      0.113972
    105 O15         0.8450   -0.0570    0.8490 o         1 MOL      0.098683
    106 C36         1.0510    0.6030    3.6600 c3        1 MOL      0.223369
    107 C37         0.4310   -0.6730    4.1090 c3        1 MOL     -0.209017
    108 C38         1.7010    1.5000    4.8050 c3        1 MOL     -0.236182
    109 C39        -0.6460   -0.5620    5.1890 c3        1 MOL     -0.343800
    110 H46         0.0250    3.4810    2.6450 hn        1 MOL      0.295784
    111 H47        -0.8340    1.6600    3.1460 h1        1 MOL      0.089456
    112 H48         1.8720    0.1700    3.0940 hc        1 MOL      0.000443
    113 H49         1.2410   -1.2540    4.5400 hc        1 MOL      0.109245
    114 H50         0.0580   -1.2600    3.2650 hc        1 MOL      0.109245
    115 H51         2.3890    0.8660    5.3680 hc        1 MOL      0.071856
    116 H52         2.2500    2.3750    4.4560 hc        1 MOL      0.071856
    117 H53         0.9110    1.8040    5.4880 hc        1 MOL      0.071856
    118 H54        -0.1870   -0.1260    6.0690 hc        1 MOL      0.089492
    119 H55        -1.5290    0.0310    4.9340 hc        1 MOL      0.089492
    120 H56        -1.0010   -1.5280    5.5510 hc        1 MOL      0.089492
    121 N11        -1.3750    0.1140    1.2010 n         1 MOL     -0.336437
    122 C40        -1.8500   -0.7780    0.0880 c3        1 MOL     -0.033966
    123 C41        -3.3420   -0.6850   -0.2000 c         1 MOL      0.525039
    124 O16        -3.8730   -1.6170   -0.9120 o         1 MOL     -0.537026
    125 C42        -1.4980   -2.2770    0.4070 c3        1 MOL      0.030401
    126 O17        -0.0890   -2.4050    0.0460 oh        1 MOL     -0.507994
    127 H57        -2.0220    0.5480    1.8450 hn        1 MOL      0.252317
    128 H58        -1.3110   -0.4600   -0.8070 h1        1 MOL      0.107053
    129 H59        -2.0650   -3.0590   -0.1000 h1        1 MOL      0.087950
    130 H60        -1.7640   -2.4600    1.4510 h1        1 MOL      0.087950
    131 H61         0.3540   -1.5580    0.1610 ho        1 MOL      0.224894
    132 N12        -4.1180    0.2260    0.4470 n         1 MOL     -0.547791
    133 C43        -5.5600    0.3730    0.0730 c3        1 MOL      0.111770
    134 C44        -5.7210    1.0730   -1.3400 c         1 MOL      0.616941
    135 O18        -5.0280    2.0160   -1.5790 o         1 MOL     -0.557430
    136 C45        -6.3160    1.0630    1.2190 c3        1 MOL     -0.100493
    137 H62        -3.7860    0.7250    1.2530 hn        1 MOL      0.312622
    138 H63        -5.9930   -0.6240    0.0690 h1        1 MOL      0.091355
    139 H64        -7.2730    1.4770    0.8930 hc        1 MOL      0.048656
    140 H65        -6.3680    0.4450    2.1140 hc        1 MOL      0.048656
    141 H66        -5.8490    1.9790    1.5780 hc        1 MOL      0.048656
    142 N13        -6.7740    0.8290   -2.1040 n         1 MOL     -0.640315
    143 C46        -7.9630    0.0390   -1.6860 c3        1 MOL      0.385053
    144 C47        -9.2820    0.7270   -2.2340 c         1 MOL      0.410204
    145 O19        -9.2780    1.2230   -3.3590 o         1 MOL     -0.514070
    146 C48        -7.8520   -1.3450   -2.2780 c3        1 MOL     -0.225492
    147 H67        -6.6060    1.2000   -3.0230 hn        1 MOL      0.349097
    148 H68        -8.0470   -0.0480   -0.6040 h1        1 MOL     -0.051369
    149 H69        -8.0000   -1.4040   -3.3580 hc        1 MOL      0.056556
    150 H70        -6.8650   -1.6720   -1.9420 hc        1 MOL      0.056556
    151 H71        -8.5620   -2.0580   -1.8590 hc        1 MOL      0.056556
    152 N14       -10.4040    0.7680   -1.4530 n         1 MOL     -0.370015
    153 C49       -10.6210    0.1870   -0.1300 c3        1 MOL     -0.160433
    154 C50       -10.1150    1.1200    0.9690 c         1 MOL      0.431449
    155 O20        -9.8120    0.6860    2.0750 o         1 MOL     -0.529972
    156 C51       -12.1220   -0.1160    0.1470 c3        1 MOL      0.105157
    157 C52       -12.6440   -1.0130   -1.0030 c3        1 MOL     -0.227728
    158 C53       -14.0230   -1.5320   -0.6820 c         1 MOL      0.676000
    159 O21       -14.1880   -2.6800   -0.2270 o         1 MOL     -0.655016
    160 O22       -15.0010   -0.7330   -0.8280 o         1 MOL     -0.655016
    161 H72       -11.1730    1.2580   -1.8920 hn        1 MOL      0.312163
    162 H73       -10.0540   -0.7490   -0.0400 h1        1 MOL      0.115313
    163 H74       -12.6170    0.8450    0.2570 hc        1 MOL      0.042655
    164 H75       -12.2030   -0.7570    1.0240 hc        1 MOL      0.042655
    165 H76       -12.1090   -1.9500   -1.0680 hc        1 MOL      0.041263
    166 H77       -12.5560   -0.5550   -1.9920 hc        1 MOL      0.041263
    167 N15       -10.0490    2.4560    0.7570 n         1 MOL     -0.243624
    168 C54        -9.3980    3.4880    1.7040 c3        1 MOL     -0.300401
    169 H78        -8.3130    3.4190    1.6250 h1        1 MOL      0.136210
    170 H79        -9.7180    4.4920    1.4250 h1        1 MOL      0.136210
    171 H80        -9.7010    3.2820    2.7310 h1        1 MOL      0.136210
    172 H81       -10.2010    2.7220   -0.2130 hn        1 MOL      0.217312
    173 Ca1         2.7670    0.4940   -0.8840 Ca        1 MOL      1.694220
    174 O23         1.1970   -1.2420   -2.3030 oh        1 MOL     -0.900884
    175 H82         1.0570   -1.6330   -3.1710 ho        1 MOL      0.429660
    176 H83         1.1630   -1.9930   -1.7030 ho        1 MOL      0.429660
    177 O24         0.5640    1.9950   -1.2100 oh        1 MOL     -0.900884
    178 H84        -0.3450    1.9380   -1.4980 ho        1 MOL      0.429660
    179 H85         0.9210    2.7470   -1.6820 ho        1 MOL      0.429660
    180 O25         2.8180    1.3450   -3.5810 oh        1 MOL     -0.900884
    181 H86         3.2980    0.5750   -3.8720 ho        1 MOL      0.429660
    182 H87         2.1720    1.5020   -4.2720 ho        1 MOL      0.429660
@<TRIPOS>BOND
     1    1    2 1   
     2    1    4 1   
     3    1    5 1   
     4    1    6 1   
     5    2    3 2   
     6    2    7 1   
     7    7    8 1   
     8    7   15 1   
     9    8    9 1   
    10    8   11 1   
    11    8   16 1   
    12    9   10 2   
    13    9   19 1   
    14   11   12 1   
    15   11   17 1   
    16   11   18 1   
    17   12   13 1   
    18   12   14 1   
    19   19   20 1   
    20   19   28 1   
    21   20   21 1   
    22   20   23 1   
    23   20   29 1   
    24   21   22 2   
    25   21   41 1   
    26   23   24 1   
    27   23   30 1   
    28   23   31 1   
    29   24   25 1   
    30   24   32 1   
    31   24   33 1   
    32   25   26 1   
    33   25   34 1   
    34   25   35 1   
    35   26   27 1   
    36   26   36 1   
    37   26   37 1   
    38   27   38 1   
    39   27   39 1   
    40   27   40 1   
    41   41   42 1   
    42   41   49 1   
    43   42   43 1   
    44   42   45 1   
    45   42   50 1   
    46   43   44 2   
    47   43   53 1   
    48   45   46 1   
    49   45   51 1   
    50   45   52 1   
    51   46   47 1   
    52   46   48 1   
    53   53   54 1   
    54   53   57 1   
    55   54   55 1   
    56   54   58 1   
    57   54   59 1   
    58   55   56 2   
    59   55   60 1   
    60   60   61 1   
    61   60   68 1   
    62   61   62 1   
    63   61   64 1   
    64   61   69 1   
    65   62   63 2   
    66   62   74 1   
    67   64   65 1   
    68   64   70 1   
    69   64   71 1   
    70   65   66 1   
    71   65   67 2   
    72   66   72 1   
    73   66   73 1   
    74   74   75 1   
    75   74   78 1   
    76   75   76 1   
    77   75   79 1   
    78   75   80 1   
    79   76   77 2   
    80   76   81 1   
    81   81   82 1   
    82   81   93 1   
    83   82   83 1   
    84   82   85 1   
    85   82   94 1   
    86   83   84 2   
    87   83  102 1   
    88   85   86 1   
    89   85   95 1   
    90   85   96 1   
    91   86   87 ar  
    92   86   88 ar  
    93   87   89 ar  
    94   87   97 1   
    95   88   90 ar  
    96   88   98 1   
    97   89   91 ar  
    98   89   99 1   
    99   90   91 ar  
   100   90  100 1   
   101   91   92 1   
   102   92  101 1   
   103  102  103 1   
   104  102  110 1   
   105  103  104 1   
   106  103  106 1   
   107  103  111 1   
   108  104  105 2   
   109  104  121 1   
   110  106  107 1   
   111  106  108 1   
   112  106  112 1   
   113  107  109 1   
   114  107  113 1   
   115  107  114 1   
   116  108  115 1   
   117  108  116 1   
   118  108  117 1   
   119  109  118 1   
   120  109  119 1   
   121  109  120 1   
   122  121  122 1   
   123  121  127 1   
   124  122  123 1   
   125  122  125 1   
   126  122  128 1   
   127  123  124 2   
   128  123  132 1   
   129  125  126 1   
   130  125  129 1   
   131  125  130 1   
   132  126  131 1   
   133  132  133 1   
   134  132  137 1   
   135  133  134 1   
   136  133  136 1   
   137  133  138 1   
   138  134  135 2   
   139  134  142 1   
   140  136  139 1   
   141  136  140 1   
   142  136  141 1   
   143  142  143 1   
   144  142  147 1   
   145  143  144 1   
   146  143  146 1   
   147  143  148 1   
   148  144  145 2   
   149  144  152 1   
   150  146  149 1   
   151  146  150 1   
   152  146  151 1   
   153  152  153 1   
   154  152  161 1   
   155  153  154 1   
   156  153  156 1   
   157  153  162 1   
   158  154  155 2   
   159  154  167 1   
   160  156  157 1   
   161  156  163 1   
   162  156  164 1   
   163  157  158 1   
   164  157  165 1   
   165  157  166 1   
   166  158  159 1   
   167  158  160 1   
   168  167  168 1   
   169  167  172 1   
   170  168  169 1   
   171  168  170 1   
   172  168  171 1   
   173  174  175 1   
   174  174  176 1   
   175  177  178 1   
   176  177  179 1   
   177  180  181 1   
   178  180  182 1   
@<TRIPOS>SUBSTRUCTURE
     1 MOL         1 TEMP              0 ****  ****    0 ROOT
