@<TRIPOS>MOLECULE
MOL
  178   175     1     0     0
SMALL
resp


@<TRIPOS>ATOM
      1 C1          4.2140   -1.7810    3.1350 c3        1 MOL     -0.411889
      2 C2          5.5190   -1.0070    2.6260 c         1 MOL      0.648632
      3 O1          5.4860   -0.1700    1.7430 o         1 MOL     -0.585221
      4 H1          4.2520   -1.8840    4.2190 hc        1 MOL      0.109111
      5 H2          3.3240   -1.2170    2.8550 hc        1 MOL      0.109111
      6 H3          4.1760   -2.7690    2.6780 hc        1 MOL      0.109111
      7 N1          6.6510   -1.4320    3.1700 n         1 MOL     -0.498882
      8 C3          8.0280   -1.0670    2.8990 c3        1 MOL      0.165832
      9 C4          8.3760   -1.5330    1.4570 c         1 MOL      0.547344
     10 O2          8.4030   -2.7490    1.1730 o         1 MOL     -0.519568
     11 C5          8.9560   -1.6320    4.0220 c3        1 MOL     -0.380950
     12 C6         10.4110   -1.6080    3.6700 c         1 MOL      0.792926
     13 O3         11.1340   -2.6480    3.7930 o         1 MOL     -0.743278
     14 O4         10.8810   -0.5040    3.3150 o         1 MOL     -0.743278
     15 H4          6.5400   -1.9810    4.0100 hn        1 MOL      0.283396
     16 H5          8.1570    0.0140    2.9410 h1        1 MOL      0.028356
     17 H6          8.6230   -2.6560    4.1800 hc        1 MOL      0.071563
     18 H7          8.8780   -0.9790    4.8790 hc        1 MOL      0.071563
     19 N2          8.4890   -0.5280    0.5760 n         1 MOL     -0.526237
     20 C7          8.6840   -0.7040   -0.8810 c3        1 MOL      0.375600
     21 C8          7.4570   -1.2160   -1.5940 c         1 MOL      0.211699
     22 O5          7.4920   -1.6110   -2.7840 o         1 MOL     -0.531468
     23 C9          9.1930    0.5580   -1.4320 c3        1 MOL     -0.336980
     24 H8          8.5410    0.4080    0.9440 hn        1 MOL      0.275912
     25 H9          9.4750   -1.4530   -1.0250 h1        1 MOL      0.040828
     26 H10         9.4690    0.4760   -2.4800 hc        1 MOL      0.085583
     27 H11         8.3580    1.2570   -1.4040 hc        1 MOL      0.085583
     28 H12        10.0340    0.9230   -0.8440 hc        1 MOL      0.085583
     29 N3          6.3170   -1.1360   -0.9360 n         1 MOL     -0.162692
     30 C10         4.9880   -1.4230   -1.4930 c3        1 MOL      0.492500
     31 C11         4.7850   -0.6450   -2.8510 c         1 MOL      0.424795
     32 O6          4.4290   -1.2420   -3.8510 o         1 MOL     -0.482353
     33 C12         4.8530   -2.9590   -1.5890 c3        1 MOL     -0.317636
     34 C13         3.4700   -3.5090   -1.9080 c         1 MOL      0.724343
     35 O7          3.2210   -4.7330   -1.8300 o         1 MOL     -0.770389
     36 O8          2.4720   -2.7820   -1.9430 o         1 MOL     -0.770389
     37 H13         6.3240   -0.7300   -0.0100 hn        1 MOL      0.126578
     38 H14         4.2760   -1.0020   -0.7970 h1        1 MOL     -0.063650
     39 H15         5.1550   -3.3090   -0.5970 hc        1 MOL      0.066114
     40 H16         5.5410   -3.4470   -2.2860 hc        1 MOL      0.066114
     41 N4          5.1100    0.6700   -2.8460 n         1 MOL     -0.394373
     42 C14         5.0790    1.5400   -4.0850 c3        1 MOL      0.037524
     43 C15         3.8460    2.3630   -4.3780 c         1 MOL      0.530916
     44 O9          3.9910    3.2140   -5.2460 o         1 MOL     -0.573410
     45 H17         5.5000    1.0690   -2.0160 hn        1 MOL      0.215398
     46 H18         5.1590    0.8930   -4.9690 h1        1 MOL      0.059475
     47 H19         5.9620    2.1730   -4.1330 h1        1 MOL      0.059475
     48 N5          2.7850    2.2760   -3.5620 n         1 MOL     -0.346941
     49 C16         1.6950    3.1950   -3.4980 c3        1 MOL      0.118997
     50 C17         2.0760    4.3970   -2.6000 c         1 MOL      0.485496
     51 O10         2.9690    4.2970   -1.7440 o         1 MOL     -0.523320
     52 C18         0.3240    2.5540   -3.1840 c3        1 MOL     -0.255886
     53 C19        -0.8360    3.5210   -3.1150 c         1 MOL      0.574950
     54 N6         -1.3310    3.6720   -1.9240 n         1 MOL     -0.697379
     55 O11        -1.1140    4.2060   -4.0780 o         1 MOL     -0.577122
     56 H20         2.7380    1.4950   -2.9260 hn        1 MOL      0.194387
     57 H21         1.6440    3.6040   -4.5100 h1        1 MOL      0.025897
     58 H22         0.3840    2.0120   -2.2360 hc        1 MOL      0.126716
     59 H23         0.0630    1.7390   -3.8610 hc        1 MOL      0.126716
     60 H24        -0.8950    3.2710   -1.1000 hn        1 MOL      0.333925
     61 H25        -1.9350    4.4830   -1.8700 hn        1 MOL      0.333925
     62 N7          1.3010    5.4740   -2.7990 n         1 MOL     -0.351290
     63 C20         1.1460    6.6540   -1.9310 c3        1 MOL      0.074786
     64 C21        -0.1160    6.7550   -1.0170 c         1 MOL      0.487908
     65 O12        -1.2160    6.5660   -1.4570 o         1 MOL     -0.479036
     66 H26         0.6310    5.4450   -3.5500 hn        1 MOL      0.260532
     67 H27         1.3950    7.5160   -2.5490 h1        1 MOL      0.023649
     68 H28         1.9500    6.6590   -1.1970 h1        1 MOL      0.023649
     69 N8          0.1150    6.9990    0.3050 n         1 MOL     -0.438024
     70 C22        -1.0640    7.2590    1.2150 c3        1 MOL     -0.188840
     71 C23        -1.7020    6.0100    1.7960 c         1 MOL      0.406298
     72 O13        -2.8260    6.1980    2.2380 o         1 MOL     -0.547014
     73 C24        -0.5630    8.1890    2.3400 c3        1 MOL      0.367941
     74 C25         0.0680    7.4960    3.5440 c3        1 MOL     -0.244780
     75 O14         0.2380    9.2390    1.8740 oh        1 MOL     -0.582898
     76 H29         1.0330    7.1530    0.6880 hn        1 MOL      0.298186
     77 H30        -1.9170    7.7260    0.7370 h1        1 MOL      0.170357
     78 H31        -1.4200    8.7890    2.6570 h1        1 MOL      0.054751
     79 H32         1.0000    8.8370    1.4470 ho        1 MOL      0.336631
     80 H33        -0.7090    7.0260    4.1480 hc        1 MOL      0.058844
     81 H34         0.8120    6.7270    3.3130 hc        1 MOL      0.058844
     82 H35         0.5030    8.2670    4.1950 hc        1 MOL      0.058844
     83 N9         -1.0730    4.8560    1.6710 n         1 MOL     -0.040795
     84 C26        -1.5990    3.4840    2.0450 c3        1 MOL     -0.147676
     85 C27        -1.2540    2.3380    1.1180 c         1 MOL      0.546910
     86 O15        -0.3110    2.4710    0.3390 o         1 MOL     -0.544112
     87 C28        -1.1560    3.1020    3.4970 c3        1 MOL      0.066899
     88 C29         0.4240    3.1960    3.5090 c3        1 MOL      0.236502
     89 C30        -1.9060    4.1340    4.3990 c3        1 MOL     -0.300129
     90 C31         0.9020    2.7420    4.8620 c3        1 MOL     -0.561706
     91 H36        -0.1620    4.8860    1.2370 hn        1 MOL      0.136251
     92 H37        -2.6740    3.6050    2.0350 h1        1 MOL      0.095383
     93 H38        -1.4020    2.0680    3.7240 hc        1 MOL      0.010891
     94 H39         0.7040    4.2410    3.3670 hc        1 MOL      0.005582
     95 H40         0.8530    2.6130    2.7010 hc        1 MOL      0.005582
     96 H41        -2.9650    3.9330    4.2930 hc        1 MOL      0.083676
     97 H42        -1.6820    3.9660    5.4590 hc        1 MOL      0.083676
     98 H43        -1.6920    5.1630    4.1320 hc        1 MOL      0.083676
     99 H44         1.9400    2.4320    4.7200 hc        1 MOL      0.135171
    100 H45         0.8140    3.5750    5.5600 hc        1 MOL      0.135171
    101 H46         0.4000    1.7790    4.9620 hc        1 MOL      0.135171
    102 N10        -2.0860    1.2750    1.1300 n         1 MOL     -0.683411
    103 C32        -1.8890    0.0660    0.2440 c3        1 MOL      0.547659
    104 C33        -3.2960   -0.3780   -0.3010 c         1 MOL      0.376227
    105 O16        -3.6280   -1.5680   -0.4250 o         1 MOL     -0.363457
    106 C34        -1.2430   -1.0940    1.0900 c3        1 MOL     -0.153821
    107 C35        -0.6490   -2.2710    0.1600 c         1 MOL      0.512122
    108 O17        -0.7190   -2.2070   -1.1140 o         1 MOL     -0.647421
    109 O18        -0.0870   -3.2900    0.6740 o         1 MOL     -0.647421
    110 H47        -2.8040    1.2040    1.8440 hn        1 MOL      0.347872
    111 H48        -1.2700    0.2290   -0.6330 h1        1 MOL     -0.055186
    112 H49        -1.9790   -1.5230    1.7780 hc        1 MOL      0.038493
    113 H50        -0.4280   -0.7290    1.7190 hc        1 MOL      0.038493
    114 N11        -4.1860    0.5800   -0.4400 n         1 MOL     -0.508495
    115 C36        -5.5550    0.3140   -0.7560 c3        1 MOL      0.372250
    116 C37        -6.2590   -0.5520    0.2410 c         1 MOL      0.075943
    117 O19        -6.0570   -0.2930    1.4920 o         1 MOL     -0.518765
    118 C38        -6.3030    1.6480   -0.8910 c3        1 MOL     -0.236954
    119 C39        -7.7190    1.3840   -1.2030 ca        1 MOL     -0.037795
    120 C40        -8.1390    1.2670   -2.5410 ca        1 MOL     -0.074438
    121 C41        -8.7320    1.1730   -0.1700 ca        1 MOL     -0.074438
    122 C42        -9.4830    0.9260   -2.9000 ca        1 MOL     -0.173557
    123 C43       -10.0290    0.9140   -0.5230 ca        1 MOL     -0.173557
    124 C44       -10.3980    0.7730   -1.8620 ca        1 MOL     -0.072028
    125 H51        -3.9410    1.5370   -0.2630 hn        1 MOL      0.248663
    126 H52        -5.5150   -0.2150   -1.7120 h1        1 MOL     -0.007716
    127 H53        -5.7930    2.2800   -1.6190 hc        1 MOL      0.119205
    128 H54        -6.1790    2.2130    0.0340 hc        1 MOL      0.119205
    129 H55        -7.4810    1.4170   -3.3890 ha        1 MOL      0.106561
    130 H56        -8.3710    1.2100    0.8500 ha        1 MOL      0.106561
    131 H57        -9.7330    0.8620   -3.9470 ha        1 MOL      0.127030
    132 H58       -10.7890    0.6610    0.2010 ha        1 MOL      0.127030
    133 H59       -11.4460    0.5920   -2.0430 ha        1 MOL      0.095752
    134 N12        -6.9690   -1.6920   -0.1100 n         1 MOL      0.304871
    135 C45        -7.7590   -2.4830    0.8100 c3        1 MOL     -0.000610
    136 C46        -6.9430   -3.4940    1.6490 c         1 MOL      0.311637
    137 O20        -7.5430   -4.1620    2.5070 o         1 MOL     -0.510420
    138 C47        -8.7960   -3.3240   -0.0960 c3        1 MOL     -0.120706
    139 C48        -8.5650   -2.7020   -1.4760 c3        1 MOL     -0.105520
    140 C49        -7.2100   -2.1570   -1.4940 c3        1 MOL     -0.081260
    141 H60        -8.3970   -1.8910    1.4680 h1        1 MOL      0.078832
    142 H61        -8.3970   -4.3340   -0.1420 hc        1 MOL      0.064892
    143 H62        -9.8270   -3.2630    0.2400 hc        1 MOL      0.064892
    144 H63        -8.6390   -3.4080   -2.3050 hc        1 MOL      0.037843
    145 H64        -9.2550   -1.8530   -1.4270 hc        1 MOL      0.037843
    146 H65        -6.5480   -3.0000   -1.7100 h1        1 MOL      0.064684
    147 H66        -7.0690   -1.4530   -2.3130 h1        1 MOL      0.064684
    148 N13        -5.6080   -3.4790    1.4390 n         1 MOL      0.004507
    149 C50        -4.5990   -4.3100    2.0260 c3        1 MOL     -0.190067
    150 C51        -4.2410   -3.8120    3.4110 c         1 MOL      0.554483
    151 O21        -4.4770   -4.5150    4.4260 o         1 MOL     -0.541008
    152 C52        -3.3560   -4.4540    1.1370 c3        1 MOL      0.151275
    153 C53        -3.6090   -5.3310   -0.0520 c3        1 MOL     -0.012651
    154 C54        -2.3510   -5.5670   -0.8360 c         1 MOL      0.639836
    155 O22        -2.1550   -4.8170   -1.7780 o         1 MOL     -0.743691
    156 O23        -1.5420   -6.4490   -0.6070 o         1 MOL     -0.743691
    157 H67        -5.3440   -2.8790    0.6570 hn        1 MOL     -0.086203
    158 H68        -5.0530   -5.2730    2.2670 h1        1 MOL      0.090984
    159 H69        -2.6220   -5.0030    1.7420 hc        1 MOL     -0.027448
    160 H70        -3.0120   -3.4500    0.9180 hc        1 MOL     -0.027448
    161 H71        -4.2850   -4.8160   -0.7320 hc        1 MOL     -0.003556
    162 H72        -3.9800   -6.3170    0.2410 hc        1 MOL     -0.003556
    163 N14        -3.6840   -2.5600    3.5420 n         1 MOL     -0.321037
    164 C55        -3.3880   -1.9550    4.8370 c3        1 MOL     -0.306719
    165 H73        -3.2330   -2.7390    5.5770 h1        1 MOL      0.122440
    166 H74        -2.4870   -1.3470    4.7570 h1        1 MOL      0.122440
    167 H75        -4.2250   -1.3270    5.1440 h1        1 MOL      0.122440
    168 H76        -3.6460   -2.0470    2.6750 hn        1 MOL      0.298589
    169 Ca1         0.5780   -4.6630   -1.4440 Ca        1 MOL      1.781056
    170 O24         1.4450   -6.9860   -2.5300 oh        1 MOL     -0.848241
    171 H77         2.0240   -7.5770   -2.0470 ho        1 MOL      0.416222
    172 H78         1.5420   -7.2570   -3.4430 ho        1 MOL      0.416222
    173 O25         0.7700   -4.2450   -4.0730 oh        1 MOL     -0.848241
    174 H79         1.3950   -4.6050   -4.6830 ho        1 MOL      0.416222
    175 H80         0.2050   -3.6860   -4.6050 ho        1 MOL      0.416222
    176 O26         1.3530   -5.7970    0.9310 oh        1 MOL     -0.848241
    177 H81         1.9460   -6.5430    0.9620 ho        1 MOL      0.416222
    178 H82         1.5060   -5.3330    1.7580 ho        1 MOL      0.416222
@<TRIPOS>BOND
     1    1    2 1   
     2    1    4 1   
     3    1    5 1   
     4    1    6 1   
     5    2    3 2   
     6    2    7 1   
     7    7    8 1   
     8    7   15 1   
     9    8    9 1   
    10    8   11 1   
    11    8   16 1   
    12    9   10 2   
    13    9   19 1   
    14   11   12 1   
    15   11   17 1   
    16   11   18 1   
    17   12   13 1   
    18   12   14 1   
    19   19   20 1   
    20   19   24 1   
    21   20   21 1   
    22   20   23 1   
    23   20   25 1   
    24   21   22 2   
    25   21   29 1   
    26   23   26 1   
    27   23   27 1   
    28   23   28 1   
    29   29   30 1   
    30   29   37 1   
    31   30   31 1   
    32   30   33 1   
    33   30   38 1   
    34   31   32 2   
    35   31   41 1   
    36   33   34 1   
    37   33   39 1   
    38   33   40 1   
    39   34   35 1   
    40   34   36 1   
    41   41   42 1   
    42   41   45 1   
    43   42   43 1   
    44   42   46 1   
    45   42   47 1   
    46   43   44 2   
    47   43   48 1   
    48   48   49 1   
    49   48   56 1   
    50   49   50 1   
    51   49   52 1   
    52   49   57 1   
    53   50   51 2   
    54   50   62 1   
    55   52   53 1   
    56   52   58 1   
    57   52   59 1   
    58   53   54 1   
    59   53   55 2   
    60   54   60 1   
    61   54   61 1   
    62   62   63 1   
    63   62   66 1   
    64   63   64 1   
    65   63   67 1   
    66   63   68 1   
    67   64   65 2   
    68   64   69 1   
    69   69   70 1   
    70   69   76 1   
    71   70   71 1   
    72   70   73 1   
    73   70   77 1   
    74   71   72 2   
    75   71   83 1   
    76   73   74 1   
    77   73   75 1   
    78   73   78 1   
    79   74   80 1   
    80   74   81 1   
    81   74   82 1   
    82   75   79 1   
    83   83   84 1   
    84   83   91 1   
    85   84   85 1   
    86   84   87 1   
    87   84   92 1   
    88   85   86 2   
    89   85  102 1   
    90   87   88 1   
    91   87   89 1   
    92   87   93 1   
    93   88   90 1   
    94   88   94 1   
    95   88   95 1   
    96   89   96 1   
    97   89   97 1   
    98   89   98 1   
    99   90   99 1   
   100   90  100 1   
   101   90  101 1   
   102  102  103 1   
   103  102  110 1   
   104  103  104 1   
   105  103  106 1   
   106  103  111 1   
   107  104  105 2   
   108  104  114 1   
   109  106  107 1   
   110  106  112 1   
   111  106  113 1   
   112  107  108 1   
   113  107  109 1   
   114  114  115 1   
   115  114  125 1   
   116  115  116 1   
   117  115  118 1   
   118  115  126 1   
   119  116  117 2   
   120  116  134 1   
   121  118  119 1   
   122  118  127 1   
   123  118  128 1   
   124  119  120 ar  
   125  119  121 ar  
   126  120  122 ar  
   127  120  129 1   
   128  121  123 ar  
   129  121  130 1   
   130  122  124 ar  
   131  122  131 1   
   132  123  124 ar  
   133  123  132 1   
   134  124  133 1   
   135  134  135 1   
   136  134  140 1   
   137  135  136 1   
   138  135  138 1   
   139  135  141 1   
   140  136  137 2   
   141  136  148 1   
   142  138  139 1   
   143  138  142 1   
   144  138  143 1   
   145  139  140 1   
   146  139  144 1   
   147  139  145 1   
   148  140  146 1   
   149  140  147 1   
   150  148  149 1   
   151  148  157 1   
   152  149  150 1   
   153  149  152 1   
   154  149  158 1   
   155  150  151 2   
   156  150  163 1   
   157  152  153 1   
   158  152  159 1   
   159  152  160 1   
   160  153  154 1   
   161  153  161 1   
   162  153  162 1   
   163  154  155 1   
   164  154  156 1   
   165  163  164 1   
   166  163  168 1   
   167  164  165 1   
   168  164  166 1   
   169  164  167 1   
   170  170  171 1   
   171  170  172 1   
   172  173  174 1   
   173  173  175 1   
   174  176  177 1   
   175  176  178 1   
@<TRIPOS>SUBSTRUCTURE
     1 MOL         1 TEMP              0 ****  ****    0 ROOT
