@<TRIPOS>MOLECULE
MOL
  178   175     1     0     0
SMALL
resp


@<TRIPOS>ATOM
      1 C1         11.6760   -6.8260    0.1960 c3        1 MOL     -0.342646
      2 C2         10.4560   -5.9200   -0.1570 c         1 MOL      0.622983
      3 O1          9.5190   -6.3850   -0.8060 o         1 MOL     -0.555760
      4 H1         12.5230   -6.5540   -0.4330 hc        1 MOL      0.085066
      5 H2         11.9430   -6.6850    1.2440 hc        1 MOL      0.085066
      6 H3         11.4160   -7.8700    0.0240 hc        1 MOL      0.085066
      7 N1         10.3860   -4.6360    0.1710 n         1 MOL     -0.410150
      8 C3         11.4350   -3.8160    0.9010 c3        1 MOL      0.075548
      9 C4         12.1900   -2.8980   -0.0030 c         1 MOL      0.487875
     10 O2         13.1980   -2.3880    0.4070 o         1 MOL     -0.576007
     11 C5         10.8880   -3.0310    2.0770 c3        1 MOL     -0.096009
     12 C6          9.6490   -2.1750    1.6790 c         1 MOL      0.287891
     13 O3          9.8220   -1.1010    1.0210 o         1 MOL     -0.522333
     14 O4          8.4550   -2.5110    1.8630 o         1 MOL     -0.522333
     15 H4          9.6450   -4.0290   -0.1210 hn        1 MOL      0.287688
     16 H5         12.2130   -4.4750    1.2880 h1        1 MOL      0.049644
     17 H6         11.6940   -2.4200    2.4820 hc        1 MOL      0.041558
     18 H7         10.5830   -3.7350    2.8520 hc        1 MOL      0.041558
     19 N2         11.7690   -2.6990   -1.2090 n         1 MOL     -0.400075
     20 C7         12.2630   -1.6560   -2.1470 c3        1 MOL      0.499776
     21 C8         11.1580   -0.8170   -2.7400 c         1 MOL      0.321401
     22 O5         11.2660   -0.3300   -3.8640 o         1 MOL     -0.563360
     23 C9         13.2110   -2.2600   -3.0930 c3        1 MOL     -0.408379
     24 H8         10.8800   -3.1220   -1.4380 hn        1 MOL      0.185464
     25 H9         12.7930   -0.9420   -1.5280 h1        1 MOL     -0.009951
     26 H10        13.8220   -1.4890   -3.5740 hc        1 MOL      0.089160
     27 H11        13.8590   -2.9640   -2.5720 hc        1 MOL      0.089160
     28 H12        12.6970   -2.8770   -3.8210 hc        1 MOL      0.089160
     29 N3         10.1060   -0.6770   -1.9890 n         1 MOL     -0.043372
     30 C10         8.8550   -0.1160   -2.4470 c3        1 MOL      0.054864
     31 C11         8.2840    1.0080   -1.5090 c         1 MOL      0.407961
     32 O6          8.7490    1.2090   -0.3570 o         1 MOL     -0.536307
     33 C12         7.8450   -1.2020   -2.6630 c3        1 MOL     -0.263221
     34 C13         7.5140   -1.9990   -1.4310 c         1 MOL      0.696452
     35 O7          6.9660   -1.3910   -0.5030 o         1 MOL     -0.634970
     36 O8          7.7520   -3.2570   -1.4010 o         1 MOL     -0.634970
     37 H13        10.1170   -0.9410   -1.0200 hn        1 MOL     -0.021186
     38 H14         9.0150    0.3440   -3.4150 h1        1 MOL      0.060194
     39 H15         8.1210   -1.8740   -3.4740 hc        1 MOL      0.061946
     40 H16         6.9310   -0.7580   -3.0600 hc        1 MOL      0.061946
     41 N4          7.3390    1.7950   -1.9480 n         1 MOL     -0.415835
     42 C14         6.6450    2.9020   -1.1940 c3        1 MOL     -0.036222
     43 C15         5.8250    2.4780   -0.0360 c         1 MOL      0.518397
     44 O9          5.6350    1.2740    0.2160 o         1 MOL     -0.491449
     45 H17         7.0200    1.6890   -2.9040 hn        1 MOL      0.312729
     46 H18         6.0350    3.4250   -1.9250 h1        1 MOL      0.086130
     47 H19         7.3470    3.6820   -0.8790 h1        1 MOL      0.086130
     48 N5          5.3960    3.4850    0.7940 n         1 MOL     -0.621868
     49 C16         4.4340    3.3380    1.9170 c3        1 MOL      0.135066
     50 C17         3.3310    4.3930    1.6560 c         1 MOL      0.639489
     51 O10         3.2750    5.4770    2.2360 o         1 MOL     -0.570844
     52 C18         5.1990    3.6650    3.1740 c3        1 MOL     -0.113749
     53 C19         6.1290    2.5660    3.6400 c         1 MOL      0.704688
     54 N6          6.7390    2.6590    4.8540 n         1 MOL     -0.744043
     55 O11         6.1160    1.5500    3.0620 o         1 MOL     -0.600506
     56 H20         5.6860    4.4060    0.5010 hn        1 MOL      0.337813
     57 H21         3.9890    2.3500    1.9790 h1        1 MOL      0.097968
     58 H22         4.4410    3.8650    3.9210 hc        1 MOL      0.041256
     59 H23         5.9480    4.4450    3.0580 hc        1 MOL      0.041256
     60 H24         6.7730    3.5500    5.3280 hn        1 MOL      0.308160
     61 H25         7.2760    1.9120    5.2670 hn        1 MOL      0.308160
     62 N7          2.4620    4.1150    0.6520 n         1 MOL     -0.683678
     63 C20         1.2520    4.9790    0.3100 c3        1 MOL      0.250334
     64 C21         0.6280    4.5020   -1.0510 c         1 MOL      0.453929
     65 O12         1.2080    3.7190   -1.8160 o         1 MOL     -0.525731
     66 H26         2.5350    3.2250    0.1780 hn        1 MOL      0.370029
     67 H27         1.4950    6.0350    0.1710 h1        1 MOL      0.050549
     68 H28         0.5420    4.9320    1.1230 h1        1 MOL      0.050549
     69 N8         -0.6420    4.8290   -1.3550 n         1 MOL     -0.393157
     70 C22        -1.6060    5.5530   -0.4850 c3        1 MOL     -0.096358
     71 C23        -2.9550    4.8230   -0.3930 c         1 MOL      0.480574
     72 O13        -3.8170    5.2090    0.4640 o         1 MOL     -0.574592
     73 C24        -1.8440    6.9780   -0.9710 c3        1 MOL      0.249174
     74 C25        -0.5710    7.7720   -0.7990 c3        1 MOL     -0.276384
     75 O14        -2.2270    6.9410   -2.3600 oh        1 MOL     -0.544580
     76 H29        -0.9620    4.3540   -2.1800 hn        1 MOL      0.317791
     77 H30        -1.1780    5.6370    0.5110 h1        1 MOL      0.118795
     78 H31        -2.6200    7.4880   -0.3940 h1        1 MOL      0.051222
     79 H32        -2.8570    7.6630   -2.3890 ho        1 MOL      0.368156
     80 H33         0.2550    7.4560   -1.4350 hc        1 MOL      0.061894
     81 H34        -0.8730    8.7960   -1.0480 hc        1 MOL      0.061894
     82 H35        -0.3030    7.7720    0.2610 hc        1 MOL      0.061894
     83 N9         -3.2090    3.8390   -1.2290 n         1 MOL     -0.323647
     84 C26        -4.4520    2.9740   -1.1850 c3        1 MOL      0.000027
     85 C27        -4.0520    1.5540   -0.7390 c         1 MOL      0.471821
     86 O15        -2.9390    1.1180   -1.1160 o         1 MOL     -0.565904
     87 C28        -5.1140    3.0760   -2.5690 c3        1 MOL      0.148358
     88 C29        -5.3830    4.4690   -3.1130 c3        1 MOL      0.051180
     89 C30        -6.3690    2.1640   -2.6230 c3        1 MOL     -0.108089
     90 C31        -5.6220    4.5720   -4.5940 c3        1 MOL     -0.359338
     91 H36        -2.5780    3.7310   -2.0190 hn        1 MOL      0.254397
     92 H37        -5.1590    3.4810   -0.5260 h1        1 MOL      0.047486
     93 H38        -4.4060    2.7060   -3.3140 hc        1 MOL      0.033149
     94 H39        -4.4970    5.0670   -2.9260 hc        1 MOL     -0.018154
     95 H40        -6.3330    4.7440   -2.6620 hc        1 MOL     -0.018154
     96 H41        -7.1460    2.6190   -2.0030 hc        1 MOL      0.036596
     97 H42        -6.8090    2.1380   -3.6220 hc        1 MOL      0.036596
     98 H43        -6.0710    1.1460   -2.4030 hc        1 MOL      0.036596
     99 H44        -5.8100    5.6320   -4.7640 hc        1 MOL      0.086887
    100 H45        -4.7730    4.1080   -5.1020 hc        1 MOL      0.086887
    101 H46        -6.5740    4.1480   -4.8940 hc        1 MOL      0.086887
    102 N10        -4.8040    0.7740    0.0450 n         1 MOL     -0.224414
    103 C32        -6.1190    1.2070    0.5740 c3        1 MOL      0.060112
    104 C33        -7.1040   -0.0100    0.8010 c         1 MOL      0.397799
    105 O16        -6.6960   -1.1700    0.9430 o         1 MOL     -0.455424
    106 C34        -5.9300    1.9970    1.9270 c3        1 MOL     -0.122444
    107 C35        -4.9930    1.3030    2.9350 c         1 MOL      0.670608
    108 O17        -3.8190    1.7160    3.0270 o         1 MOL     -0.708537
    109 O18        -5.4530    0.4050    3.6760 o         1 MOL     -0.708537
    110 H47        -4.3550   -0.0920    0.3080 hn        1 MOL      0.269374
    111 H48        -6.6360    1.8760   -0.1140 h1        1 MOL      0.010300
    112 H49        -6.9110    2.0870    2.3980 hc        1 MOL      0.008168
    113 H50        -5.5890    3.0170    1.7270 hc        1 MOL      0.008168
    114 N11        -8.3580    0.2470    1.0360 n         1 MOL     -0.443140
    115 C36        -9.5180   -0.5990    1.2410 c3        1 MOL      0.357177
    116 C37       -10.3070   -0.7710   -0.1320 c         1 MOL      0.318758
    117 O19       -10.4650    0.2570   -0.8470 o         1 MOL     -0.548107
    118 C38       -10.4180    0.0710    2.2260 c3        1 MOL     -0.152883
    119 C39       -11.6960   -0.6680    2.5640 ca        1 MOL     -0.004445
    120 C40       -12.9110   -0.2410    1.9920 ca        1 MOL     -0.081135
    121 C41       -11.7090   -1.7860    3.5050 ca        1 MOL     -0.081135
    122 C42       -14.1240   -0.9380    2.4090 ca        1 MOL     -0.221613
    123 C43       -12.8930   -2.4270    3.8060 ca        1 MOL     -0.221613
    124 C44       -14.0550   -2.0280    3.1980 ca        1 MOL      0.038014
    125 H51        -8.6440    1.2150    0.9490 hn        1 MOL      0.259262
    126 H52        -9.2650   -1.5600    1.6970 h1        1 MOL      0.040878
    127 H53       -10.6910    1.0780    1.8980 hc        1 MOL      0.053911
    128 H54        -9.8930    0.2700    3.1570 hc        1 MOL      0.053911
    129 H55       -12.9570    0.6460    1.3740 ha        1 MOL      0.117828
    130 H56       -10.7730   -2.0820    3.9530 ha        1 MOL      0.117828
    131 H57       -15.0820   -0.7660    1.9270 ha        1 MOL      0.119046
    132 H58       -12.9000   -3.1980    4.5640 ha        1 MOL      0.119046
    133 H59       -14.9850   -2.5350    3.4370 ha        1 MOL      0.051416
    134 N12       -10.9480   -1.9030   -0.4730 n         1 MOL      0.014061
    135 C45       -10.8140   -3.2140    0.2180 c3        1 MOL      0.053031
    136 C46        -9.3100   -3.7150    0.0900 c         1 MOL      0.360867
    137 O20        -8.7890   -4.1330    1.1490 o         1 MOL     -0.542258
    138 C47       -11.8300   -4.1290   -0.5250 c3        1 MOL      0.070825
    139 C48       -12.8930   -3.1810   -0.9920 c3        1 MOL      0.012563
    140 C49       -12.0230   -2.0570   -1.5040 c3        1 MOL     -0.235440
    141 H60       -11.0560   -3.3240    1.2780 h1        1 MOL      0.054167
    142 H61       -11.3440   -4.6900   -1.3290 hc        1 MOL     -0.014489
    143 H62       -12.2820   -4.8390    0.1570 hc        1 MOL     -0.014489
    144 H63       -13.5500   -3.6500   -1.7330 hc        1 MOL      0.005238
    145 H64       -13.3840   -2.9190   -0.0600 hc        1 MOL      0.005238
    146 H65       -11.5470   -2.3430   -2.4390 h1        1 MOL      0.107000
    147 H66       -12.6910   -1.2030   -1.6530 h1        1 MOL      0.107000
    148 N13        -8.5710   -3.5420   -1.0680 n         1 MOL     -0.306709
    149 C50        -7.1230   -3.9280   -1.1720 c3        1 MOL      0.095369
    150 C51        -7.0290   -5.4860   -1.1000 c         1 MOL      0.380313
    151 O21        -7.3030   -6.1130   -2.1450 o         1 MOL     -0.566853
    152 C52        -6.5210   -3.4440   -2.5200 c3        1 MOL      0.138958
    153 C53        -6.3130   -1.9100   -2.4840 c3        1 MOL     -0.203476
    154 C54        -5.8730   -1.3430   -3.8220 c         1 MOL      0.745115
    155 O22        -4.6670   -1.1540   -4.1060 o         1 MOL     -0.715625
    156 O23        -6.7690   -1.1710   -4.6750 o         1 MOL     -0.715625
    157 H67        -8.9680   -2.9220   -1.7580 hn        1 MOL      0.232532
    158 H68        -6.5950   -3.4310   -0.3510 h1        1 MOL      0.072507
    159 H69        -7.1820   -3.6110   -3.3660 hc        1 MOL     -0.005678
    160 H70        -5.6020   -3.9980   -2.7220 hc        1 MOL     -0.005678
    161 H71        -5.4490   -1.7080   -1.8520 hc        1 MOL     -0.002180
    162 H72        -7.1980   -1.4090   -2.0950 hc        1 MOL     -0.002180
    163 N14        -6.6220   -6.1640   -0.0050 n         1 MOL     -0.271775
    164 C55        -6.0410   -5.5590    1.2120 c3        1 MOL     -0.176791
    165 H73        -6.7770   -5.5830    2.0160 h1        1 MOL      0.094568
    166 H74        -5.1570   -6.1220    1.5120 h1        1 MOL      0.094568
    167 H75        -5.7620   -4.5250    1.0070 h1        1 MOL      0.094568
    168 H76        -6.7340   -7.1600   -0.1270 hn        1 MOL      0.244607
    169 Ca1         7.5190   -0.0070    1.6460 Ca        1 MOL      1.726822
    170 O24         8.0960   -0.3690    4.2010 oh        1 MOL     -0.842070
    171 H77         8.3370    0.2000    4.9360 ho        1 MOL      0.402059
    172 H78         8.1420   -1.2550    4.5510 ho        1 MOL      0.402059
    173 O25         9.5670    1.6950    2.5820 oh        1 MOL     -0.842070
    174 H79         9.8380    2.6060    2.5200 ho        1 MOL      0.402059
    175 H80        10.1100    1.3280    3.2680 ho        1 MOL      0.402059
    176 O26         5.4710   -1.7620    2.0190 oh        1 MOL     -0.842070
    177 H81         4.6050   -1.5000    1.6990 ho        1 MOL      0.402059
    178 H82         5.2930   -2.2700    2.8080 ho        1 MOL      0.402059
@<TRIPOS>BOND
     1    1    2 1   
     2    1    4 1   
     3    1    5 1   
     4    1    6 1   
     5    2    3 2   
     6    2    7 1   
     7    7    8 1   
     8    7   15 1   
     9    8    9 1   
    10    8   11 1   
    11    8   16 1   
    12    9   10 2   
    13    9   19 1   
    14   11   12 1   
    15   11   17 1   
    16   11   18 1   
    17   12   13 1   
    18   12   14 1   
    19   19   20 1   
    20   19   24 1   
    21   20   21 1   
    22   20   23 1   
    23   20   25 1   
    24   21   22 2   
    25   21   29 1   
    26   23   26 1   
    27   23   27 1   
    28   23   28 1   
    29   29   30 1   
    30   29   37 1   
    31   30   31 1   
    32   30   33 1   
    33   30   38 1   
    34   31   32 2   
    35   31   41 1   
    36   33   34 1   
    37   33   39 1   
    38   33   40 1   
    39   34   35 1   
    40   34   36 1   
    41   41   42 1   
    42   41   45 1   
    43   42   43 1   
    44   42   46 1   
    45   42   47 1   
    46   43   44 2   
    47   43   48 1   
    48   48   49 1   
    49   48   56 1   
    50   49   50 1   
    51   49   52 1   
    52   49   57 1   
    53   50   51 2   
    54   50   62 1   
    55   52   53 1   
    56   52   58 1   
    57   52   59 1   
    58   53   54 1   
    59   53   55 2   
    60   54   60 1   
    61   54   61 1   
    62   62   63 1   
    63   62   66 1   
    64   63   64 1   
    65   63   67 1   
    66   63   68 1   
    67   64   65 2   
    68   64   69 1   
    69   69   70 1   
    70   69   76 1   
    71   70   71 1   
    72   70   73 1   
    73   70   77 1   
    74   71   72 2   
    75   71   83 1   
    76   73   74 1   
    77   73   75 1   
    78   73   78 1   
    79   74   80 1   
    80   74   81 1   
    81   74   82 1   
    82   75   79 1   
    83   83   84 1   
    84   83   91 1   
    85   84   85 1   
    86   84   87 1   
    87   84   92 1   
    88   85   86 2   
    89   85  102 1   
    90   87   88 1   
    91   87   89 1   
    92   87   93 1   
    93   88   90 1   
    94   88   94 1   
    95   88   95 1   
    96   89   96 1   
    97   89   97 1   
    98   89   98 1   
    99   90   99 1   
   100   90  100 1   
   101   90  101 1   
   102  102  103 1   
   103  102  110 1   
   104  103  104 1   
   105  103  106 1   
   106  103  111 1   
   107  104  105 2   
   108  104  114 1   
   109  106  107 1   
   110  106  112 1   
   111  106  113 1   
   112  107  108 1   
   113  107  109 1   
   114  114  115 1   
   115  114  125 1   
   116  115  116 1   
   117  115  118 1   
   118  115  126 1   
   119  116  117 2   
   120  116  134 1   
   121  118  119 1   
   122  118  127 1   
   123  118  128 1   
   124  119  120 ar  
   125  119  121 ar  
   126  120  122 ar  
   127  120  129 1   
   128  121  123 ar  
   129  121  130 1   
   130  122  124 ar  
   131  122  131 1   
   132  123  124 ar  
   133  123  132 1   
   134  124  133 1   
   135  134  135 1   
   136  134  140 1   
   137  135  136 1   
   138  135  138 1   
   139  135  141 1   
   140  136  137 2   
   141  136  148 1   
   142  138  139 1   
   143  138  142 1   
   144  138  143 1   
   145  139  140 1   
   146  139  144 1   
   147  139  145 1   
   148  140  146 1   
   149  140  147 1   
   150  148  149 1   
   151  148  157 1   
   152  149  150 1   
   153  149  152 1   
   154  149  158 1   
   155  150  151 2   
   156  150  163 1   
   157  152  153 1   
   158  152  159 1   
   159  152  160 1   
   160  153  154 1   
   161  153  161 1   
   162  153  162 1   
   163  154  155 1   
   164  154  156 1   
   165  163  164 1   
   166  163  168 1   
   167  164  165 1   
   168  164  166 1   
   169  164  167 1   
   170  170  171 1   
   171  170  172 1   
   172  173  174 1   
   173  173  175 1   
   174  176  177 1   
   175  176  178 1   
@<TRIPOS>SUBSTRUCTURE
     1 MOL         1 TEMP              0 ****  ****    0 ROOT
