@<TRIPOS>MOLECULE
MOL
  182   178     1     0     0
SMALL
resp


@<TRIPOS>ATOM
      1 C1         -1.5070   -4.9400    4.9170 c3        1 MOL     -0.298847
      2 C2         -0.8770   -4.4810    3.5520 c         1 MOL      0.738513
      3 O1         -1.4970   -4.7420    2.5060 o         1 MOL     -0.612076
      4 H1         -0.7500   -5.4470    5.5140 hc        1 MOL      0.080190
      5 H2         -1.8740   -4.0680    5.4600 hc        1 MOL      0.080190
      6 H3         -2.3350   -5.6230    4.7240 hc        1 MOL      0.080190
      7 N1          0.2890   -3.8790    3.5210 n         1 MOL     -0.524774
      8 C3          0.9260   -3.4250    2.2690 c3        1 MOL      0.005669
      9 C4          1.2560   -4.6500    1.3650 c         1 MOL      0.583747
     10 O2          1.5890   -5.7200    1.8830 o         1 MOL     -0.567901
     11 C5          2.1330   -2.5980    2.5810 c3        1 MOL     -0.080134
     12 C6          2.5750   -1.7500    1.3810 c         1 MOL      0.634416
     13 O3          3.1820   -0.6580    1.4130 o         1 MOL     -0.739423
     14 O4          2.3620   -2.1220    0.1960 o         1 MOL     -0.739423
     15 H4          0.8580   -3.8390    4.3590 hn        1 MOL      0.295607
     16 H5          0.1610   -2.7780    1.8420 h1        1 MOL      0.076073
     17 H6          3.0410   -3.1230    2.8630 hc        1 MOL      0.057758
     18 H7          1.8480   -1.9170    3.3900 hc        1 MOL      0.057758
     19 N2          1.0880   -4.5770    0.0450 n         1 MOL     -0.309977
     20 C7          1.4350   -5.6060   -0.9200 c3        1 MOL      0.009370
     21 C8          2.6140   -5.2700   -1.8370 c         1 MOL      0.414350
     22 O5          2.7560   -5.9610   -2.8590 o         1 MOL     -0.539876
     23 C9          0.1640   -5.8810   -1.7650 c3        1 MOL     -0.010513
     24 C10        -0.2450   -4.6240   -2.5590 c3        1 MOL      0.139702
     25 C11        -1.4420   -4.6920   -3.5130 c3        1 MOL     -0.054454
     26 C12        -1.4120   -5.9580   -4.3440 c3        1 MOL      0.199809
     27 N3         -2.5570   -5.9420   -5.3430 n4        1 MOL     -0.471911
     28 H8          0.8910   -3.6370   -0.2520 hn        1 MOL      0.150580
     29 H9          1.6240   -6.5620   -0.4240 h1        1 MOL      0.112410
     30 H10        -0.6810   -6.1020   -1.1140 hc        1 MOL     -0.002426
     31 H11         0.4060   -6.6380   -2.5000 hc        1 MOL     -0.002426
     32 H12         0.6110   -4.4660   -3.2200 hc        1 MOL      0.000271
     33 H13        -0.4130   -3.7910   -1.8710 hc        1 MOL      0.000271
     34 H14        -1.4220   -3.8150   -4.1610 hc        1 MOL      0.000142
     35 H15        -2.3610   -4.7060   -2.9420 hc        1 MOL      0.000142
     36 H16        -1.4960   -6.8070   -3.6600 hx        1 MOL      0.051271
     37 H17        -0.5300   -6.0290   -4.9840 hx        1 MOL      0.051271
     38 H18        -2.3720   -5.2060   -6.0050 hn        1 MOL      0.347966
     39 H19        -2.6450   -6.8870   -5.7150 hn        1 MOL      0.347966
     40 H20        -3.4100   -5.6210   -4.9020 hn        1 MOL      0.347966
     41 N4          3.2570   -4.1880   -1.5740 n         1 MOL     -0.337950
     42 C13         4.5130   -3.8480   -2.1960 c3        1 MOL      0.128159
     43 C14         5.6230   -3.4500   -1.1660 c         1 MOL      0.299533
     44 O6          6.7480   -3.3830   -1.5830 o         1 MOL     -0.488436
     45 C15         4.3910   -2.7610   -3.2520 c3        1 MOL     -0.375182
     46 C16         3.6020   -1.5680   -2.5930 c         1 MOL      0.927807
     47 O7          4.1140   -0.7340   -1.8590 o         1 MOL     -0.848626
     48 O8          2.3760   -1.3870   -2.8050 o         1 MOL     -0.848626
     49 H21         2.9430   -3.6670   -0.7620 hn        1 MOL      0.251499
     50 H22         4.8640   -4.6900   -2.7810 h1        1 MOL      0.095736
     51 H23         3.7720   -3.0860   -4.0840 hc        1 MOL      0.106139
     52 H24         5.3700   -2.4290   -3.5940 hc        1 MOL      0.106139
     53 N5          5.2520   -3.2090    0.0700 n         1 MOL     -0.057581
     54 C17         6.1090   -2.8820    1.1790 c3        1 MOL     -0.330360
     55 C18         6.7780   -1.5200    1.1750 c         1 MOL      0.679987
     56 O9          7.7530   -1.3820    1.7630 o         1 MOL     -0.580762
     57 H25         4.2580   -3.3590    0.2220 hn        1 MOL      0.118377
     58 H26         6.9410   -3.5760    1.1880 h1        1 MOL      0.137851
     59 H27         5.5840   -2.9740    2.1240 h1        1 MOL      0.137851
     60 N6          6.3540   -0.5890    0.3190 n         1 MOL     -0.432646
     61 C19         6.9420    0.7160   -0.0070 c3        1 MOL      0.148506
     62 C20         5.8750    1.8110   -0.1170 c         1 MOL      0.205018
     63 O10         4.7630    1.5540   -0.5390 o         1 MOL     -0.235246
     64 C21         7.7600    0.5800   -1.3370 c3        1 MOL     -0.071421
     65 C22         8.8230    1.6270   -1.5360 c         1 MOL      0.581438
     66 N7         10.1250    1.2750   -1.7730 n         1 MOL     -0.818840
     67 O11         8.5120    2.8160   -1.4750 o         1 MOL     -0.541250
     68 H28         5.6010   -0.8490   -0.2980 hn        1 MOL      0.351522
     69 H29         7.7190    0.9870    0.7190 h1        1 MOL      0.039994
     70 H30         7.1250    0.6510   -2.2170 hc        1 MOL      0.052037
     71 H31         8.0970   -0.4470   -1.5000 hc        1 MOL      0.052037
     72 H32        10.4500    0.3240   -1.7000 hn        1 MOL      0.371920
     73 H33        10.8140    2.0000   -1.9390 hn        1 MOL      0.371920
     74 N8          6.2100    3.0980    0.1310 n         1 MOL     -0.231020
     75 C23         5.4330    4.2480   -0.3670 c3        1 MOL     -0.285118
     76 C24         4.1070    4.3430    0.5030 c         1 MOL      0.662265
     77 O12         4.1300    4.2740    1.7360 o         1 MOL     -0.551006
     78 H34         7.0740    3.3010    0.6200 hn        1 MOL      0.280028
     79 H35         5.1750    4.0760   -1.4120 h1        1 MOL      0.125988
     80 H36         5.9840    5.1550   -0.1350 h1        1 MOL      0.125988
     81 N9          3.0060    4.5270   -0.1280 n         1 MOL     -0.494120
     82 C25         1.7130    4.5610    0.5390 c3        1 MOL      0.015982
     83 C26         1.3640    3.2230    1.2260 c         1 MOL      0.486599
     84 O13         1.8720    2.1830    0.7780 o         1 MOL     -0.515094
     85 C27         0.6360    4.8080   -0.4840 c3        1 MOL      0.063088
     86 C28         0.6010    6.1880   -1.1420 ca        1 MOL     -0.009668
     87 C29         0.6690    7.3280   -0.2670 ca        1 MOL     -0.134855
     88 C30         0.8750    6.3200   -2.5490 ca        1 MOL     -0.134855
     89 C31         0.8390    8.6090   -0.9050 ca        1 MOL     -0.313289
     90 C32         0.9610    7.6210   -3.1150 ca        1 MOL     -0.313289
     91 C33         0.9680    8.7040   -2.2470 ca        1 MOL      0.433761
     92 O14         1.0350    9.9210   -2.7640 oh        1 MOL     -0.494140
     93 H37         2.9760    4.5590   -1.1380 hn        1 MOL      0.266607
     94 H38         1.7780    5.4020    1.2320 h1        1 MOL      0.115227
     95 H39        -0.3700    4.6990   -0.0730 hc        1 MOL     -0.026420
     96 H40         0.6950    4.0800   -1.2860 hc        1 MOL     -0.026420
     97 H41         0.5670    7.3680    0.8060 ha        1 MOL      0.136695
     98 H42         0.9690    5.4310   -3.1550 ha        1 MOL      0.136695
     99 H43         0.7390    9.4950   -0.2820 ha        1 MOL      0.170463
    100 H44         1.0300    7.7810   -4.1750 ha        1 MOL      0.170463
    101 H45         1.1650    9.9110   -3.7160 ho        1 MOL      0.362802
    102 N10         0.5990    3.2100    2.2960 n         1 MOL     -0.512376
    103 C34         0.2700    2.1050    3.2300 c3        1 MOL      0.233458
    104 C35        -0.3490    0.8580    2.6140 c         1 MOL      0.253236
    105 O15         0.2760    0.1710    1.7770 o         1 MOL     -0.360389
    106 C36         1.4620    1.6890    4.1120 c3        1 MOL      0.163161
    107 C37         0.9610    0.9340    5.3780 c3        1 MOL     -0.048406
    108 C38         2.3080    2.9070    4.5110 c3        1 MOL      0.012891
    109 C39         1.9540    0.6450    6.4890 c3        1 MOL     -0.187531
    110 H46         0.3260    4.0990    2.6810 hn        1 MOL      0.272661
    111 H47        -0.3910    2.5350    3.9890 h1        1 MOL     -0.011022
    112 H48         2.1990    1.1200    3.5470 hc        1 MOL      0.019723
    113 H49         0.4570    0.0030    5.1250 hc        1 MOL      0.009720
    114 H50         0.1680    1.4910    5.8680 hc        1 MOL      0.009720
    115 H51         1.7070    3.6010    5.1040 hc        1 MOL     -0.008764
    116 H52         3.1480    2.7390    5.1900 hc        1 MOL     -0.008764
    117 H53         2.7040    3.4190    3.6320 hc        1 MOL     -0.008764
    118 H54         2.1380    1.5610    7.0500 hc        1 MOL      0.055079
    119 H55         1.5200   -0.1290    7.1220 hc        1 MOL      0.055079
    120 H56         2.9150    0.2950    6.1110 hc        1 MOL      0.055079
    121 N11        -1.5260    0.4540    3.1700 n         1 MOL     -0.299906
    122 C40        -2.3290   -0.7100    2.9450 c3        1 MOL      0.089854
    123 C41        -3.3470   -0.5350    1.7930 c         1 MOL      0.438957
    124 O16        -4.3270   -1.3330    1.8900 o         1 MOL     -0.514173
    125 C42        -3.0170   -1.1040    4.1830 c3        1 MOL      0.238963
    126 O17        -2.2390   -0.8290    5.4230 oh        1 MOL     -0.617705
    127 H57        -1.8600    1.0570    3.9090 hn        1 MOL      0.197504
    128 H58        -1.6140   -1.4930    2.6750 h1        1 MOL      0.066031
    129 H59        -3.4050   -2.1170    4.1620 h1        1 MOL      0.029016
    130 H60        -3.9400   -0.5360    4.1850 h1        1 MOL      0.029016
    131 H61        -2.6340   -0.0120    5.7420 ho        1 MOL      0.385107
    132 N12        -3.1770    0.4860    0.9340 n         1 MOL     -0.472250
    133 C43        -4.1170    0.8510   -0.1560 c3        1 MOL      0.375544
    134 C44        -3.8740    0.2270   -1.5580 c         1 MOL      0.531221
    135 O18        -2.7620    0.4540   -2.1020 o         1 MOL     -0.608322
    136 C45        -4.2160    2.3510   -0.2740 c3        1 MOL     -0.490069
    137 H62        -2.3860    1.1020    1.0830 hn        1 MOL      0.221671
    138 H63        -5.0940    0.5720    0.2360 h1        1 MOL      0.046195
    139 H64        -3.2890    2.7180   -0.7360 hc        1 MOL      0.145316
    140 H65        -4.9850    2.5350   -1.0200 hc        1 MOL      0.145316
    141 H66        -4.5490    2.6710    0.7140 hc        1 MOL      0.145316
    142 N13        -4.8220   -0.3320   -2.3290 n         1 MOL     -0.644600
    143 C46        -6.1810   -0.5580   -1.8290 c3        1 MOL      0.273894
    144 C47        -7.1050    0.7460   -1.7110 c         1 MOL      0.774299
    145 O19        -6.8150    1.7370   -2.3120 o         1 MOL     -0.605090
    146 C48        -6.8330   -1.5060   -2.8550 c3        1 MOL     -0.235567
    147 H67        -4.5740   -0.5910   -3.2730 hn        1 MOL      0.369361
    148 H68        -6.0980   -0.9390   -0.8110 h1        1 MOL     -0.013950
    149 H69        -7.0050   -0.9510   -3.7790 hc        1 MOL      0.062253
    150 H70        -6.1390   -2.2960   -3.1260 hc        1 MOL      0.062253
    151 H71        -7.7870   -1.7920   -2.4260 hc        1 MOL      0.062253
    152 N14        -8.2080    0.7180   -0.9950 n         1 MOL     -0.710582
    153 C49        -8.9140   -0.3150   -0.0660 c3        1 MOL     -0.025251
    154 C50        -9.2980    0.2350    1.3380 c         1 MOL      0.492596
    155 O20        -8.9230   -0.3350    2.3630 o         1 MOL     -0.564020
    156 C51       -10.1600   -1.0400   -0.7560 c3        1 MOL     -0.045444
    157 C52       -11.3300   -0.1250   -1.0630 c3        1 MOL      0.027792
    158 C53       -11.0690    1.1120   -1.8810 c         1 MOL      0.735260
    159 O21       -11.3370    1.0850   -3.0820 o         1 MOL     -0.692229
    160 O22       -10.6760    2.1330   -1.3000 o         1 MOL     -0.692229
    161 H72        -8.7870    1.5260   -1.1730 hn        1 MOL      0.325334
    162 H73        -8.1890   -1.1190    0.0090 h1        1 MOL      0.059803
    163 H74       -10.5050   -1.8580   -0.1180 hc        1 MOL      0.027653
    164 H75        -9.7120   -1.3310   -1.7080 hc        1 MOL      0.027653
    165 H76       -11.7040    0.2070   -0.0970 hc        1 MOL     -0.044070
    166 H77       -12.1220   -0.6700   -1.5790 hc        1 MOL     -0.044070
    167 N15        -9.9380    1.3970    1.3850 n         1 MOL     -0.094758
    168 C54       -10.3440    2.0780    2.5960 c3        1 MOL     -0.294100
    169 H78       -10.7030    3.0770    2.3470 h1        1 MOL      0.106800
    170 H79       -11.1420    1.5160    3.0800 h1        1 MOL      0.106800
    171 H80        -9.4920    2.1570    3.2720 h1        1 MOL      0.106800
    172 H81       -10.0910    1.8570    0.4940 hn        1 MOL      0.171240
    173 Ca1         1.9030    0.1680   -0.8440 Ca        1 MOL      1.810121
    174 O23         2.4800    1.8330   -2.8700 oh        1 MOL     -0.894248
    175 H82         3.2460    2.1450   -3.3500 ho        1 MOL      0.430135
    176 H83         1.7280    2.1970   -3.3590 ho        1 MOL      0.430135
    177 O24        -0.4420    1.3890   -1.4980 oh        1 MOL     -0.894248
    178 H84        -1.2090    0.8820   -1.7380 ho        1 MOL      0.430135
    179 H85        -0.6660    2.2900   -1.7260 ho        1 MOL      0.430135
    180 O25        -0.2960   -1.4150   -1.1460 oh        1 MOL     -0.894248
    181 H86        -0.9150   -2.0950   -0.8560 ho        1 MOL      0.430135
    182 H87        -0.5770   -1.2080   -2.0420 ho        1 MOL      0.430135
@<TRIPOS>BOND
     1    1    2 1   
     2    1    4 1   
     3    1    5 1   
     4    1    6 1   
     5    2    3 2   
     6    2    7 1   
     7    7    8 1   
     8    7   15 1   
     9    8    9 1   
    10    8   11 1   
    11    8   16 1   
    12    9   10 2   
    13    9   19 1   
    14   11   12 1   
    15   11   17 1   
    16   11   18 1   
    17   12   13 1   
    18   12   14 1   
    19   19   20 1   
    20   19   28 1   
    21   20   21 1   
    22   20   23 1   
    23   20   29 1   
    24   21   22 2   
    25   21   41 1   
    26   23   24 1   
    27   23   30 1   
    28   23   31 1   
    29   24   25 1   
    30   24   32 1   
    31   24   33 1   
    32   25   26 1   
    33   25   34 1   
    34   25   35 1   
    35   26   27 1   
    36   26   36 1   
    37   26   37 1   
    38   27   38 1   
    39   27   39 1   
    40   27   40 1   
    41   41   42 1   
    42   41   49 1   
    43   42   43 1   
    44   42   45 1   
    45   42   50 1   
    46   43   44 2   
    47   43   53 1   
    48   45   46 1   
    49   45   51 1   
    50   45   52 1   
    51   46   47 1   
    52   46   48 1   
    53   53   54 1   
    54   53   57 1   
    55   54   55 1   
    56   54   58 1   
    57   54   59 1   
    58   55   56 2   
    59   55   60 1   
    60   60   61 1   
    61   60   68 1   
    62   61   62 1   
    63   61   64 1   
    64   61   69 1   
    65   62   63 2   
    66   62   74 1   
    67   64   65 1   
    68   64   70 1   
    69   64   71 1   
    70   65   66 1   
    71   65   67 2   
    72   66   72 1   
    73   66   73 1   
    74   74   75 1   
    75   74   78 1   
    76   75   76 1   
    77   75   79 1   
    78   75   80 1   
    79   76   77 2   
    80   76   81 1   
    81   81   82 1   
    82   81   93 1   
    83   82   83 1   
    84   82   85 1   
    85   82   94 1   
    86   83   84 2   
    87   83  102 1   
    88   85   86 1   
    89   85   95 1   
    90   85   96 1   
    91   86   87 ar  
    92   86   88 ar  
    93   87   89 ar  
    94   87   97 1   
    95   88   90 ar  
    96   88   98 1   
    97   89   91 ar  
    98   89   99 1   
    99   90   91 ar  
   100   90  100 1   
   101   91   92 1   
   102   92  101 1   
   103  102  103 1   
   104  102  110 1   
   105  103  104 1   
   106  103  106 1   
   107  103  111 1   
   108  104  105 2   
   109  104  121 1   
   110  106  107 1   
   111  106  108 1   
   112  106  112 1   
   113  107  109 1   
   114  107  113 1   
   115  107  114 1   
   116  108  115 1   
   117  108  116 1   
   118  108  117 1   
   119  109  118 1   
   120  109  119 1   
   121  109  120 1   
   122  121  122 1   
   123  121  127 1   
   124  122  123 1   
   125  122  125 1   
   126  122  128 1   
   127  123  124 2   
   128  123  132 1   
   129  125  126 1   
   130  125  129 1   
   131  125  130 1   
   132  126  131 1   
   133  132  133 1   
   134  132  137 1   
   135  133  134 1   
   136  133  136 1   
   137  133  138 1   
   138  134  135 2   
   139  134  142 1   
   140  136  139 1   
   141  136  140 1   
   142  136  141 1   
   143  142  143 1   
   144  142  147 1   
   145  143  144 1   
   146  143  146 1   
   147  143  148 1   
   148  144  145 2   
   149  144  152 1   
   150  146  149 1   
   151  146  150 1   
   152  146  151 1   
   153  152  153 1   
   154  152  161 1   
   155  153  154 1   
   156  153  156 1   
   157  153  162 1   
   158  154  155 2   
   159  154  167 1   
   160  156  157 1   
   161  156  163 1   
   162  156  164 1   
   163  157  158 1   
   164  157  165 1   
   165  157  166 1   
   166  158  159 1   
   167  158  160 1   
   168  167  168 1   
   169  167  172 1   
   170  168  169 1   
   171  168  170 1   
   172  168  171 1   
   173  174  175 1   
   174  174  176 1   
   175  177  178 1   
   176  177  179 1   
   177  180  181 1   
   178  180  182 1   
@<TRIPOS>SUBSTRUCTURE
     1 MOL         1 TEMP              0 ****  ****    0 ROOT
