@<TRIPOS>MOLECULE
MOL
  186   183     1     0     0
SMALL
resp


@<TRIPOS>ATOM
      1 C1        -12.5970    4.6440    3.4610 c3        1 MOL     -0.360987
      2 C2        -12.1800    3.8450    2.2290 c         1 MOL      0.706323
      3 O1        -12.4400    2.6100    2.2400 o         1 MOL     -0.594432
      4 H1        -11.9430    5.5090    3.5700 hc        1 MOL      0.091565
      5 H2        -13.6270    4.9790    3.3450 hc        1 MOL      0.091565
      6 H3        -12.5160    4.0140    4.3470 hc        1 MOL      0.091565
      7 N1        -11.5260    4.4760    1.2370 n         1 MOL     -0.731180
      8 C3        -11.0410    3.8830   -0.0590 c3        1 MOL      0.074443
      9 C4         -9.9260    2.8040    0.0290 c         1 MOL      0.549029
     10 O2         -8.8250    3.1320    0.5790 o         1 MOL     -0.606609
     11 C5        -10.5440    5.0040   -1.0270 c3        1 MOL     -0.584863
     12 C6         -9.8550    6.1130   -0.1330 c         1 MOL      1.100191
     13 O3         -8.6310    6.2120   -0.1380 o         1 MOL     -0.861221
     14 O4        -10.5620    6.8270    0.5980 o         1 MOL     -0.861221
     15 H4        -11.4240    5.4770    1.3010 hn        1 MOL      0.526021
     16 H5        -11.9080    3.3810   -0.4720 h1        1 MOL      0.099502
     17 H6        -11.3680    5.3540   -1.6360 hc        1 MOL      0.163054
     18 H7         -9.8010    4.5550   -1.6880 hc        1 MOL      0.163054
     19 N2        -10.1950    1.6170   -0.5120 n         1 MOL     -0.264309
     20 C7         -9.6070    0.2800   -0.2340 c3        1 MOL     -0.268848
     21 C8         -8.0580    0.1540   -0.2690 c         1 MOL      0.737428
     22 O5         -7.4970   -0.8380    0.2750 o         1 MOL     -0.608706
     23 C9        -10.3830   -0.7170   -1.2150 c3        1 MOL     -0.266470
     24 C10        -9.9360   -2.1880   -1.1250 c3        1 MOL      0.552954
     25 C11       -10.7320   -3.1500   -1.9320 c3        1 MOL     -0.294377
     26 C12       -10.1770   -4.6530   -1.8180 c3        1 MOL      0.087312
     27 N3        -10.5410   -5.1830   -0.4980 n4        1 MOL     -0.483419
     28 H8        -11.1000    1.5710   -0.9550 hn        1 MOL      0.211108
     29 H9         -9.7800    0.0670    0.8210 h1        1 MOL      0.151814
     30 H10       -10.0970   -0.4060   -2.2220 hc        1 MOL      0.098367
     31 H11       -11.4690   -0.6510   -1.1590 hc        1 MOL      0.098367
     32 H12       -10.0690   -2.5170   -0.0930 hc        1 MOL     -0.127669
     33 H13        -8.9110   -2.3610   -1.4300 hc        1 MOL     -0.127669
     34 H14       -10.5820   -2.7450   -2.9350 hc        1 MOL      0.063010
     35 H15       -11.7460   -3.0890   -1.5310 hc        1 MOL      0.063010
     36 H16        -9.1060   -4.6020   -2.0130 hx        1 MOL      0.102986
     37 H17       -10.6210   -5.2440   -2.6240 hx        1 MOL      0.102986
     38 H18       -10.2660   -6.1480   -0.3720 hn        1 MOL      0.360430
     39 H19       -10.1210   -4.5890    0.2070 hn        1 MOL      0.360430
     40 H20       -11.5380   -5.1380   -0.3990 hn        1 MOL      0.360430
     41 N4         -7.4130    1.0090   -0.9980 n         1 MOL     -0.149198
     42 C13        -6.0130    0.9460   -1.1550 c3        1 MOL     -0.506504
     43 C14        -5.2880    1.4360    0.1610 c         1 MOL      0.424115
     44 O6         -5.7920    2.2850    0.8920 o         1 MOL     -0.632958
     45 C15        -5.5500    1.7450   -2.4090 c3        1 MOL     -0.252239
     46 C16        -6.0830    3.2150   -2.5110 c         1 MOL      0.577281
     47 O7         -5.9660    3.8490   -3.6290 o         1 MOL     -0.645110
     48 O8         -6.6140    3.8290   -1.5330 o         1 MOL     -0.645110
     49 H21        -7.9680    1.7700   -1.3780 hn        1 MOL      0.268886
     50 H22        -5.7670   -0.1080   -1.2710 h1        1 MOL      0.225102
     51 H23        -5.9390    1.2480   -3.2980 hc        1 MOL      0.155798
     52 H24        -4.4610    1.8010   -2.4040 hc        1 MOL      0.155798
     53 N5         -4.1150    0.8960    0.6380 n         1 MOL     -0.080216
     54 C17        -3.3370   -0.1080    0.0160 c3        1 MOL     -0.346578
     55 C18        -3.9010   -1.5430    0.1330 c         1 MOL      0.868884
     56 O9         -4.0040   -2.0360    1.2600 o         1 MOL     -0.633095
     57 H25        -3.7220    1.4070    1.4120 hn        1 MOL      0.212144
     58 H26        -2.3720   -0.3630    0.4680 h1        1 MOL      0.107713
     59 H27        -3.2300    0.1540   -1.0330 h1        1 MOL      0.107713
     60 N6         -4.1940   -2.2610   -0.9080 n         1 MOL     -0.535133
     61 C19        -4.6250   -3.6730   -0.8270 c3        1 MOL      0.085498
     62 C20        -3.4650   -4.6590   -0.9570 c         1 MOL      0.432059
     63 O10        -2.5480   -4.3450   -1.7480 o         1 MOL     -0.526106
     64 C21        -5.5980   -3.8520   -2.0160 c3        1 MOL     -0.016954
     65 C22        -6.2720   -5.1680   -2.2640 c         1 MOL      0.641268
     66 O11        -6.0340   -6.1080   -1.4670 o         1 MOL     -0.707166
     67 O12        -7.0300   -5.1900   -3.2910 o         1 MOL     -0.707166
     68 H28        -4.2440   -1.7630   -1.7880 hn        1 MOL      0.261652
     69 H29        -5.2000   -3.8430    0.0780 h1        1 MOL      0.028725
     70 H30        -5.1260   -3.4480   -2.9200 hc        1 MOL      0.020587
     71 H31        -6.3960   -3.1190   -1.8890 hc        1 MOL      0.020587
     72 N7         -3.4590   -5.8220   -0.3750 n         1 MOL     -0.148459
     73 C23        -2.3660   -6.7940   -0.2690 c3        1 MOL     -0.212346
     74 C24        -1.2130   -6.4240    0.5150 c         1 MOL      0.467054
     75 O13        -0.3480   -7.2480    0.8360 o         1 MOL     -0.577077
     76 H32        -4.3510   -6.0270    0.0660 hn        1 MOL      0.211838
     77 H33        -2.0850   -7.0270   -1.2900 h1        1 MOL      0.136578
     78 H34        -2.6660   -7.7570    0.1490 h1        1 MOL      0.136578
     79 N8         -0.9970   -5.1760    0.7850 n         1 MOL     -0.093643
     80 C25         0.1300   -4.4320    1.2770 c3        1 MOL      0.014830
     81 C26         0.4040   -3.2140    0.4150 c         1 MOL      0.512235
     82 O14        -0.4010   -2.7150   -0.4270 o         1 MOL     -0.476947
     83 C27        -0.0400   -4.0270    2.7520 c3        1 MOL      0.191667
     84 C28        -1.2550   -3.2050    3.0510 c3        1 MOL     -0.073025
     85 O15        -0.2440   -5.2630    3.4210 oh        1 MOL     -0.575059
     86 H35        -1.7410   -4.6070    0.3960 hn        1 MOL      0.043197
     87 H36         1.0060   -5.0830    1.2050 h1        1 MOL      0.033612
     88 H37         0.8240   -3.4910    3.1410 h1        1 MOL      0.011652
     89 H38         0.5730   -5.7380    3.2370 ho        1 MOL      0.370629
     90 H39        -2.1320   -3.6050    2.5500 hc        1 MOL      0.040147
     91 H40        -1.3200   -3.1180    4.1420 hc        1 MOL      0.040147
     92 H41        -1.0990   -2.2110    2.6360 hc        1 MOL      0.040147
     93 N9          1.5790   -2.6140    0.5680 n         1 MOL     -0.432011
     94 C29         2.0580   -1.3620   -0.1430 c3        1 MOL     -0.171455
     95 C30         3.5810   -1.4040   -0.3870 c         1 MOL      0.649115
     96 O16         4.1250   -0.4800   -1.0280 o         1 MOL     -0.557474
     97 C31         1.7020   -0.0500    0.6260 c3        1 MOL      0.137367
     98 C32         2.3330   -0.0480    2.0450 c3        1 MOL     -0.082912
     99 C33         0.1340    0.1120    0.8490 c3        1 MOL     -0.052136
    100 C34         1.8800    1.1560    2.9810 c3        1 MOL     -0.063632
    101 H42         2.1480   -2.9760    1.3180 hn        1 MOL      0.247328
    102 H43         1.5000   -1.3070   -1.0790 h1        1 MOL      0.155616
    103 H44         1.9930    0.7720   -0.0350 hc        1 MOL      0.031256
    104 H45         3.3940    0.0970    1.8970 hc        1 MOL      0.029573
    105 H46         2.1340   -1.0030    2.5320 hc        1 MOL      0.029573
    106 H47        -0.3070   -0.2470   -0.0840 hc        1 MOL      0.011023
    107 H48        -0.2250   -0.4250    1.7230 hc        1 MOL      0.011023
    108 H49        -0.2130    1.1400    0.9550 hc        1 MOL      0.011023
    109 H50         1.7960    2.0820    2.4220 hc        1 MOL      0.021349
    110 H51         0.9090    0.9330    3.4330 hc        1 MOL      0.021349
    111 H52         2.4800    1.3540    3.8750 hc        1 MOL      0.021349
    112 N10         4.2200   -2.4390    0.1230 n         1 MOL     -0.527236
    113 C35         5.6460   -2.6080   -0.2720 c3        1 MOL      0.021783
    114 C36         6.5460   -2.5150    0.9920 c         1 MOL      0.697866
    115 O17         6.1020   -2.7250    2.1000 o         1 MOL     -0.533910
    116 C37         5.9010   -4.0130   -0.7540 c3        1 MOL      0.290490
    117 C38         5.1310   -4.4210   -1.9880 c3        1 MOL     -0.309923
    118 O18         7.2560   -4.1880   -1.1100 oh        1 MOL     -0.681326
    119 H53         3.8600   -3.1360    0.7620 hn        1 MOL      0.275952
    120 H54         5.9880   -1.9380   -1.0660 h1        1 MOL      0.133503
    121 H55         5.7170   -4.6970    0.0720 h1        1 MOL      0.026246
    122 H56         7.3730   -5.0290   -1.5670 ho        1 MOL      0.421586
    123 H57         5.3310   -3.9660   -2.9630 hc        1 MOL      0.091597
    124 H58         5.1740   -5.4880   -2.2010 hc        1 MOL      0.091597
    125 H59         4.0630   -4.2080   -1.8880 hc        1 MOL      0.091597
    126 N11         7.8350   -2.0970    0.7770 n         1 MOL     -0.743186
    127 C39         8.9780   -2.1990    1.6960 c3        1 MOL      0.235278
    128 C40         9.5790   -0.7660    1.8870 c         1 MOL      0.603184
    129 O19         9.8250   -0.2670    2.9590 o         1 MOL     -0.578933
    130 C41         9.9860   -3.2480    1.2700 c3        1 MOL      0.256940
    131 C42        11.1970   -3.3410    2.1920 c3        1 MOL     -0.277649
    132 O20        10.4120   -2.9730   -0.1230 oh        1 MOL     -0.619479
    133 H60         7.9490   -1.9020   -0.2090 hn        1 MOL      0.299145
    134 H61         8.6680   -2.4630    2.7110 h1        1 MOL      0.041148
    135 H62         9.5340   -4.2460    1.2970 h1        1 MOL      0.025431
    136 H63         9.6250   -3.0860   -0.6520 ho        1 MOL      0.391229
    137 H64        11.8570   -4.1780    1.9530 hc        1 MOL      0.080534
    138 H65        11.8190   -2.4530    2.2060 hc        1 MOL      0.080534
    139 H66        10.8700   -3.4520    3.2280 hc        1 MOL      0.080534
    140 N12         9.8810   -0.0810    0.7900 n         1 MOL     -0.374326
    141 C43        10.3970    1.2810    0.6760 c3        1 MOL      0.007282
    142 C44         9.7410    2.0680   -0.4670 c         1 MOL      0.467618
    143 O21         9.0950    1.5780   -1.3590 o         1 MOL     -0.457177
    144 C45        11.8980    1.2380    0.6650 c3        1 MOL     -0.286584
    145 C46        12.6070    0.5930   -0.5410 c3        1 MOL      0.226380
    146 C47        14.1180    0.4600   -0.3860 c3        1 MOL     -0.288093
    147 C48        14.7210   -0.4530   -1.5250 c3        1 MOL      0.176477
    148 N13        16.0560   -0.9740   -1.2040 n4        1 MOL     -0.204769
    149 H67         9.6220   -0.4580   -0.1090 hn        1 MOL      0.214321
    150 H68        10.1340    1.7930    1.6090 h1        1 MOL      0.127398
    151 H69        12.2300    0.7180    1.5580 hc        1 MOL      0.082060
    152 H70        12.3040    2.2450    0.7050 hc        1 MOL      0.082060
    153 H71        12.4370    1.1660   -1.4570 hc        1 MOL     -0.010618
    154 H72        12.1580   -0.3830   -0.7500 hc        1 MOL     -0.010618
    155 H73        14.1590   -0.1520    0.5180 hc        1 MOL      0.099840
    156 H74        14.5790    1.4490   -0.3560 hc        1 MOL      0.099840
    157 H75        14.8480    0.0610   -2.4820 hx        1 MOL      0.045508
    158 H76        14.1660   -1.3470   -1.8120 hx        1 MOL      0.045508
    159 H77        16.0560   -1.3740   -0.2780 hn        1 MOL      0.224654
    160 H78        16.4070   -1.6060   -1.9140 hn        1 MOL      0.224654
    161 H79        16.7150   -0.2060   -1.1190 hn        1 MOL      0.224654
    162 N14         9.9770    3.4130   -0.4190 n         1 MOL     -0.337639
    163 C49         9.3490    4.3510   -1.3680 c3        1 MOL     -0.077383
    164 C50         7.8070    4.2710   -1.4620 c         1 MOL      0.407952
    165 O22         7.3640    4.2400   -2.5820 o         1 MOL     -0.526653
    166 C51         9.8210    5.7900   -1.1500 c3        1 MOL      0.117678
    167 C52        11.3620    6.0900   -1.0540 c3        1 MOL     -0.353912
    168 C53        11.7450    7.5910   -0.8830 c         1 MOL      0.676649
    169 O23        12.2070    8.2220   -1.8720 o         1 MOL     -0.635344
    170 O24        11.3400    8.2160    0.1170 o         1 MOL     -0.635344
    171 H80        10.5110    3.7930    0.3480 hn        1 MOL      0.254029
    172 H81         9.7620    4.1230   -2.3530 h1        1 MOL      0.101208
    173 H82         9.2560    6.1980   -0.3180 hc        1 MOL      0.048859
    174 H83         9.3640    6.3740   -1.9500 hc        1 MOL      0.048859
    175 H84        11.8040    5.7590   -1.9930 hc        1 MOL      0.056542
    176 H85        11.8970    5.5040   -0.3060 hc        1 MOL      0.056542
    177 N15         6.9970    4.3250   -0.4430 n         1 MOL     -0.288139
    178 C54         7.3010    4.5640    1.0120 c3        1 MOL     -0.039137
    179 H86         7.5020    5.6240    1.1710 h1        1 MOL      0.044867
    180 H87         6.4460    4.2620    1.6170 h1        1 MOL      0.044867
    181 H88         8.1760    3.9820    1.3020 h1        1 MOL      0.044867
    182 H89         6.0210    4.2960   -0.6920 hn        1 MOL      0.273247
    183 Ca1        -6.6110    4.8800    0.8330 Ca        1 MOL      1.762959
    184 O25        -8.2610    4.5270    3.0120 oh        1 MOL     -0.899837
    185 H90        -8.2680    4.4960    3.9670 ho        1 MOL      0.443672
    186 H91        -9.1340    4.2220    2.7510 ho        1 MOL      0.443672
@<TRIPOS>BOND
     1    1    2 1   
     2    1    4 1   
     3    1    5 1   
     4    1    6 1   
     5    2    3 2   
     6    2    7 1   
     7    7    8 1   
     8    7   15 1   
     9    8    9 1   
    10    8   11 1   
    11    8   16 1   
    12    9   10 2   
    13    9   19 1   
    14   11   12 1   
    15   11   17 1   
    16   11   18 1   
    17   12   13 1   
    18   12   14 1   
    19   19   20 1   
    20   19   28 1   
    21   20   21 1   
    22   20   23 1   
    23   20   29 1   
    24   21   22 2   
    25   21   41 1   
    26   23   24 1   
    27   23   30 1   
    28   23   31 1   
    29   24   25 1   
    30   24   32 1   
    31   24   33 1   
    32   25   26 1   
    33   25   34 1   
    34   25   35 1   
    35   26   27 1   
    36   26   36 1   
    37   26   37 1   
    38   27   38 1   
    39   27   39 1   
    40   27   40 1   
    41   41   42 1   
    42   41   49 1   
    43   42   43 1   
    44   42   45 1   
    45   42   50 1   
    46   43   44 2   
    47   43   53 1   
    48   45   46 1   
    49   45   51 1   
    50   45   52 1   
    51   46   47 1   
    52   46   48 1   
    53   53   54 1   
    54   53   57 1   
    55   54   55 1   
    56   54   58 1   
    57   54   59 1   
    58   55   56 2   
    59   55   60 1   
    60   60   61 1   
    61   60   68 1   
    62   61   62 1   
    63   61   64 1   
    64   61   69 1   
    65   62   63 2   
    66   62   72 1   
    67   64   65 1   
    68   64   70 1   
    69   64   71 1   
    70   65   66 1   
    71   65   67 1   
    72   72   73 1   
    73   72   76 1   
    74   73   74 1   
    75   73   77 1   
    76   73   78 1   
    77   74   75 2   
    78   74   79 1   
    79   79   80 1   
    80   79   86 1   
    81   80   81 1   
    82   80   83 1   
    83   80   87 1   
    84   81   82 2   
    85   81   93 1   
    86   83   84 1   
    87   83   85 1   
    88   83   88 1   
    89   84   90 1   
    90   84   91 1   
    91   84   92 1   
    92   85   89 1   
    93   93   94 1   
    94   93  101 1   
    95   94   95 1   
    96   94   97 1   
    97   94  102 1   
    98   95   96 2   
    99   95  112 1   
   100   97   98 1   
   101   97   99 1   
   102   97  103 1   
   103   98  100 1   
   104   98  104 1   
   105   98  105 1   
   106   99  106 1   
   107   99  107 1   
   108   99  108 1   
   109  100  109 1   
   110  100  110 1   
   111  100  111 1   
   112  112  113 1   
   113  112  119 1   
   114  113  114 1   
   115  113  116 1   
   116  113  120 1   
   117  114  115 2   
   118  114  126 1   
   119  116  117 1   
   120  116  118 1   
   121  116  121 1   
   122  117  123 1   
   123  117  124 1   
   124  117  125 1   
   125  118  122 1   
   126  126  127 1   
   127  126  133 1   
   128  127  128 1   
   129  127  130 1   
   130  127  134 1   
   131  128  129 2   
   132  128  140 1   
   133  130  131 1   
   134  130  132 1   
   135  130  135 1   
   136  131  137 1   
   137  131  138 1   
   138  131  139 1   
   139  132  136 1   
   140  140  141 1   
   141  140  149 1   
   142  141  142 1   
   143  141  144 1   
   144  141  150 1   
   145  142  143 2   
   146  142  162 1   
   147  144  145 1   
   148  144  151 1   
   149  144  152 1   
   150  145  146 1   
   151  145  153 1   
   152  145  154 1   
   153  146  147 1   
   154  146  155 1   
   155  146  156 1   
   156  147  148 1   
   157  147  157 1   
   158  147  158 1   
   159  148  159 1   
   160  148  160 1   
   161  148  161 1   
   162  162  163 1   
   163  162  171 1   
   164  163  164 1   
   165  163  166 1   
   166  163  172 1   
   167  164  165 2   
   168  164  177 1   
   169  166  167 1   
   170  166  173 1   
   171  166  174 1   
   172  167  168 1   
   173  167  175 1   
   174  167  176 1   
   175  168  169 1   
   176  168  170 1   
   177  177  178 1   
   178  177  182 1   
   179  178  179 1   
   180  178  180 1   
   181  178  181 1   
   182  184  185 1   
   183  184  186 1   
@<TRIPOS>SUBSTRUCTURE
     1 MOL         1 TEMP              0 ****  ****    0 ROOT
