@<TRIPOS>MOLECULE
MOL
  182   178     1     0     0
SMALL
resp


@<TRIPOS>ATOM
      1 C1          0.8990   -3.6030    6.3980 c3        1 MOL     -0.387839
      2 C2          1.0150   -3.5670    4.8610 c         1 MOL      0.747610
      3 O1          0.0290   -3.7210    4.1030 o         1 MOL     -0.600478
      4 H1          1.8050   -4.0390    6.8200 hc        1 MOL      0.112379
      5 H2          0.7730   -2.5890    6.7770 hc        1 MOL      0.112379
      6 H3          0.0390   -4.2080    6.6830 hc        1 MOL      0.112379
      7 N1          2.2350   -3.4420    4.3070 n         1 MOL     -0.598656
      8 C3          2.3870   -3.2050    2.8540 c3        1 MOL      0.091907
      9 C4          2.6320   -4.5870    2.1680 c         1 MOL      0.582252
     10 O2          3.0840   -5.5720    2.7560 o         1 MOL     -0.532106
     11 C5          3.4310   -2.1250    2.5620 c3        1 MOL     -0.079143
     12 C6          3.4370   -1.3980    1.1760 c         1 MOL      0.436085
     13 O3          4.0160   -0.3050    1.0830 o         1 MOL     -0.573695
     14 O4          2.9790   -2.0350    0.2050 o         1 MOL     -0.573695
     15 H4          3.0400   -3.2740    4.8910 hn        1 MOL      0.319603
     16 H5          1.4530   -2.8180    2.4410 h1        1 MOL     -0.119342
     17 H6          4.3660   -2.6880    2.6600 hc        1 MOL      0.056747
     18 H7          3.4770   -1.3950    3.3700 hc        1 MOL      0.056747
     19 N2          2.3850   -4.5370    0.8270 n         1 MOL     -0.309664
     20 C7          2.4740   -5.6060   -0.2080 c3        1 MOL      0.001510
     21 C8          3.7130   -5.4630   -1.0330 c         1 MOL      0.489581
     22 O5          4.1850   -6.4690   -1.6120 o         1 MOL     -0.558405
     23 C9          1.1110   -5.6450   -1.0620 c3        1 MOL     -0.174437
     24 C10         0.7530   -4.3370   -1.7870 c3        1 MOL      0.600359
     25 C11        -0.2740   -4.5000   -2.9030 c3        1 MOL     -0.456565
     26 C12        -1.7240   -4.9330   -2.4020 c3        1 MOL      0.148455
     27 N3         -2.4810   -5.5030   -3.5250 n4        1 MOL     -0.257318
     28 H8          1.9220   -3.6900    0.5290 hn        1 MOL      0.225344
     29 H9          2.5790   -6.5280    0.3590 h1        1 MOL      0.103050
     30 H10         0.2570   -5.9080   -0.4390 hc        1 MOL      0.024070
     31 H11         1.3450   -6.3900   -1.8190 hc        1 MOL      0.024070
     32 H12         1.6580   -3.9170   -2.2260 hc        1 MOL     -0.102403
     33 H13         0.4280   -3.5910   -1.0530 hc        1 MOL     -0.102403
     34 H14         0.1590   -5.2810   -3.5330 hc        1 MOL      0.111670
     35 H15        -0.2400   -3.5830   -3.4930 hc        1 MOL      0.111670
     36 H16        -2.3210   -4.1400   -1.9500 hx        1 MOL      0.058896
     37 H17        -1.5790   -5.7930   -1.7530 hx        1 MOL      0.058896
     38 H18        -3.1450   -6.2120   -3.2500 hn        1 MOL      0.265713
     39 H19        -2.9360   -4.7640   -4.0470 hn        1 MOL      0.265713
     40 H20        -1.8690   -5.9310   -4.2060 hn        1 MOL      0.265713
     41 N4          4.2220   -4.2370   -1.2650 n         1 MOL     -0.182014
     42 C13         5.4670   -3.9040   -2.0380 c3        1 MOL      0.136957
     43 C14         6.7160   -3.3810   -1.1910 c         1 MOL      0.392020
     44 O6          7.8530   -3.5100   -1.5920 o         1 MOL     -0.473574
     45 C15         4.9920   -2.9860   -3.2250 c3        1 MOL     -0.336173
     46 C16         4.2330   -1.8080   -2.7160 c         1 MOL      0.825307
     47 O7          3.0560   -1.6850   -2.9710 o         1 MOL     -0.775288
     48 O8          4.7990   -1.0410   -1.9470 o         1 MOL     -0.775288
     49 H21         3.7790   -3.5020   -0.7250 hn        1 MOL     -0.120674
     50 H22         5.8690   -4.8080   -2.4810 h1        1 MOL      0.079528
     51 H23         4.4220   -3.6090   -3.9050 hc        1 MOL      0.096705
     52 H24         5.9830   -2.7640   -3.6160 hc        1 MOL      0.096705
     53 N5          6.3150   -2.8200   -0.0210 n         1 MOL     -0.147040
     54 C17         7.2050   -2.2440    0.9160 c3        1 MOL     -0.306212
     55 C18         7.6130   -0.8200    0.8020 c         1 MOL      0.613067
     56 O9          8.4200   -0.3230    1.6320 o         1 MOL     -0.565330
     57 H25         5.3340   -2.7320    0.1800 hn        1 MOL      0.212358
     58 H26         8.1080   -2.8590    0.8950 h1        1 MOL      0.136074
     59 H27         6.7370   -2.2730    1.8940 h1        1 MOL      0.136074
     60 N6          7.0870   -0.0220   -0.1830 n         1 MOL     -0.383112
     61 C19         7.4650    1.3980   -0.4050 c3        1 MOL      0.139337
     62 C20         6.1680    2.2110   -0.6100 c         1 MOL      0.455521
     63 O10         5.0900    1.8130   -0.8870 o         1 MOL     -0.389613
     64 C21         8.3690    1.5690   -1.6100 c3        1 MOL     -0.350251
     65 C22         7.6720    1.5380   -2.9190 c         1 MOL      0.639781
     66 N7          6.7120    0.6340   -3.1350 n         1 MOL     -0.698217
     67 O11         8.0250    2.2530   -3.8230 o         1 MOL     -0.584621
     68 H28         6.3370   -0.3780   -0.7520 hn        1 MOL      0.286052
     69 H29         7.9240    1.8330    0.4850 h1        1 MOL      0.056631
     70 H30         9.1050    0.7630   -1.5620 hc        1 MOL      0.125322
     71 H31         8.9630    2.4530   -1.4250 hc        1 MOL      0.125322
     72 H32         6.2140    0.1250   -2.4290 hn        1 MOL      0.323688
     73 H33         6.3890    0.6510   -4.0990 hn        1 MOL      0.323688
     74 N8          6.3910    3.5560   -0.3800 n         1 MOL     -0.424835
     75 C23         5.3310    4.5610   -0.5440 c3        1 MOL     -0.296060
     76 C24         4.2520    4.4640    0.4700 c         1 MOL      0.641157
     77 O12         4.4840    4.1520    1.6480 o         1 MOL     -0.486009
     78 H34         7.3260    3.9310   -0.4670 hn        1 MOL      0.316939
     79 H35         4.9270    4.3960   -1.5440 h1        1 MOL      0.140856
     80 H36         5.8540    5.5110   -0.4160 h1        1 MOL      0.140856
     81 N9          2.9810    4.6950   -0.0420 n         1 MOL     -0.765036
     82 C25         1.8400    4.5600    0.7760 c3        1 MOL      0.683394
     83 C26         1.5470    3.1070    1.0610 c         1 MOL      0.569432
     84 O13         2.1570    2.1490    0.5020 o         1 MOL     -0.531519
     85 C27         0.6630    5.2560    0.0780 c3        1 MOL     -0.353833
     86 C28         0.8870    6.7530   -0.1350 ca        1 MOL      0.246532
     87 C29         1.0340    7.2510   -1.4330 ca        1 MOL     -0.303055
     88 C30         0.9650    7.6790    0.9360 ca        1 MOL     -0.303055
     89 C31         0.9570    8.6210   -1.6980 ca        1 MOL     -0.174107
     90 C32         1.0090    9.0750    0.7380 ca        1 MOL     -0.174107
     91 C33         0.9530    9.4690   -0.6060 ca        1 MOL      0.298664
     92 O14         0.9070   10.8060   -0.9580 oh        1 MOL     -0.473119
     93 H37         2.9070    5.1250   -0.9540 hn        1 MOL      0.325659
     94 H38         1.9700    4.9880    1.7780 h1        1 MOL     -0.073812
     95 H39        -0.2730    5.1160    0.6100 hc        1 MOL      0.055228
     96 H40         0.5660    4.7280   -0.8710 hc        1 MOL      0.055228
     97 H41         1.0180    6.4880   -2.1990 ha        1 MOL      0.157534
     98 H42         0.8860    7.3840    1.9770 ha        1 MOL      0.157534
     99 H43         0.8610    8.9950   -2.7160 ha        1 MOL      0.164219
    100 H44         1.0240    9.7260    1.5970 ha        1 MOL      0.164219
    101 H45         0.9370   10.9130   -1.9150 ho        1 MOL      0.337218
    102 N10         0.6000    2.8910    1.9710 n         1 MOL     -0.706484
    103 C34         0.1500    1.6640    2.6310 c3        1 MOL      0.048646
    104 C35        -0.2270    0.4910    1.6750 c         1 MOL      0.698131
    105 O15         0.5280    0.0750    0.8030 o         1 MOL     -0.571016
    106 C36         1.2180    1.2420    3.6920 c3        1 MOL      0.184334
    107 C37         0.7870   -0.0370    4.5180 c3        1 MOL     -0.041696
    108 C38         1.7250    2.4800    4.5280 c3        1 MOL     -0.295339
    109 C39        -0.1870    0.1000    5.6420 c3        1 MOL     -0.095612
    110 H46         0.1420    3.6960    2.3680 hn        1 MOL      0.320690
    111 H47        -0.8060    1.9480    3.0510 h1        1 MOL      0.066839
    112 H48         2.0720    0.8490    3.1350 hc        1 MOL      0.038198
    113 H49         1.6680   -0.4640    5.0060 hc        1 MOL      0.038043
    114 H50         0.2510   -0.7380    3.8800 hc        1 MOL      0.038043
    115 H51         0.8620    3.1090    4.7460 hc        1 MOL      0.080234
    116 H52         2.0850    2.2190    5.5200 hc        1 MOL      0.080234
    117 H53         2.3820    3.0260    3.8390 hc        1 MOL      0.080234
    118 H54        -1.1510    0.4120    5.2370 hc        1 MOL      0.014476
    119 H55        -0.3510   -0.7830    6.2490 hc        1 MOL      0.014476
    120 H56         0.0650    1.0180    6.1910 hc        1 MOL      0.014476
    121 N11        -1.4390    0.0510    1.8380 n         1 MOL     -0.600915
    122 C40        -2.1330   -0.9160    0.9620 c3        1 MOL      0.036364
    123 C41        -3.6540   -0.8000    1.1760 c         1 MOL      0.614597
    124 O16        -4.3250   -1.5350    1.9600 o         1 MOL     -0.525172
    125 C42        -1.5710   -2.2930    1.3770 c3        1 MOL      0.403706
    126 O17        -2.1790   -3.2390    0.5340 oh        1 MOL     -0.704364
    127 H57        -2.0150    0.3660    2.6150 hn        1 MOL      0.294372
    128 H58        -1.8900   -0.6160   -0.0600 h1        1 MOL      0.043470
    129 H59        -1.7810   -2.4740    2.4360 h1        1 MOL      0.012782
    130 H60        -0.4940   -2.3180    1.2140 h1        1 MOL      0.012782
    131 H61        -1.7920   -4.0930    0.7170 ho        1 MOL      0.402846
    132 N12        -4.2250    0.0260    0.2920 n         1 MOL     -0.666926
    133 C43        -5.6640    0.0850    0.0110 c3        1 MOL      0.405204
    134 C44        -5.8110   -0.2390   -1.5070 c         1 MOL      0.584096
    135 O18        -4.7620   -0.4170   -2.1450 o         1 MOL     -0.600057
    136 C45        -6.1820    1.4640    0.4030 c3        1 MOL     -0.391535
    137 H62        -3.6230    0.6080   -0.2880 hn        1 MOL      0.309644
    138 H63        -6.0680   -0.7120    0.6370 h1        1 MOL      0.037458
    139 H64        -7.2520    1.4170    0.2250 hc        1 MOL      0.103397
    140 H65        -5.9250    1.6120    1.4540 hc        1 MOL      0.103397
    141 H66        -5.7340    2.1970   -0.2620 hc        1 MOL      0.103397
    142 N13        -7.0520   -0.3370   -1.9960 n         1 MOL     -0.654023
    143 C46        -8.3130   -0.6230   -1.2910 c3        1 MOL      0.267573
    144 C47        -9.4210    0.2510   -1.9470 c         1 MOL      0.249926
    145 O19        -9.3720    0.4710   -3.1720 o         1 MOL     -0.484685
    146 C48        -8.7110   -2.0820   -1.5260 c3        1 MOL     -0.152374
    147 H67        -7.1880   -0.4160   -2.9890 hn        1 MOL      0.358294
    148 H68        -8.2500   -0.4200   -0.2250 h1        1 MOL      0.005814
    149 H69        -9.6610   -2.3490   -1.0680 hc        1 MOL      0.059803
    150 H70        -8.6400   -2.3670   -2.5760 hc        1 MOL      0.059803
    151 H71        -8.0550   -2.7580   -0.9800 hc        1 MOL      0.059803
    152 N14       -10.5190    0.5770   -1.2380 n         1 MOL     -0.252357
    153 C49       -10.8480    0.3470    0.2350 c3        1 MOL     -0.174131
    154 C50       -10.2310    1.4160    1.2030 c         1 MOL      0.398797
    155 O20       -10.2060    1.2200    2.3920 o         1 MOL     -0.480185
    156 C51       -12.3650    0.1810    0.4310 c3        1 MOL      0.042864
    157 C52       -12.9920   -1.1870    0.1440 c3        1 MOL     -0.098886
    158 C53       -13.2340   -1.4790   -1.3440 c         1 MOL      0.696532
    159 O21       -12.7530   -0.7250   -2.2520 o         1 MOL     -0.670534
    160 O22       -13.8990   -2.4910   -1.6130 o         1 MOL     -0.670534
    161 H72       -11.1860    1.0010   -1.8490 hn        1 MOL      0.291685
    162 H73       -10.4390   -0.6080    0.5620 h1        1 MOL      0.144926
    163 H74       -12.8950    0.9350   -0.1510 hc        1 MOL      0.014244
    164 H75       -12.5350    0.3760    1.4950 hc        1 MOL      0.014244
    165 H76       -14.0140   -1.2050    0.5300 hc        1 MOL      0.010051
    166 H77       -12.3890   -1.9710    0.5920 hc        1 MOL      0.010051
    167 N15        -9.7720    2.5590    0.6290 n         1 MOL     -0.172489
    168 C54        -9.0170    3.5490    1.3150 c3        1 MOL     -0.156918
    169 H78        -9.6390    4.4280    1.4810 h1        1 MOL      0.075781
    170 H79        -8.6850    3.1530    2.2750 h1        1 MOL      0.075781
    171 H80        -8.1500    3.8260    0.7150 h1        1 MOL      0.075781
    172 H81       -10.1290    2.8020   -0.2770 hn        1 MOL      0.205154
    173 Ca1         2.3840    0.2060   -1.2500 Ca        1 MOL      1.733966
    174 O23         0.5940    2.2080   -1.9570 oh        1 MOL     -0.847864
    175 H82         0.5100    2.6190   -2.8100 ho        1 MOL      0.418148
    176 H83        -0.2950    2.1390   -1.6300 ho        1 MOL      0.418148
    177 O24         0.2090   -0.8580   -2.0430 oh        1 MOL     -0.847864
    178 H84        -0.6080   -1.1400   -1.6420 ho        1 MOL      0.418148
    179 H85         0.1250   -1.1020   -2.9580 ho        1 MOL      0.418148
    180 O25         3.0880    1.4600   -3.3630 oh        1 MOL     -0.847864
    181 H86         2.5810    2.0550   -3.9310 ho        1 MOL      0.418148
    182 H87         3.6390    0.9720   -3.9830 ho        1 MOL      0.418148
@<TRIPOS>BOND
     1    1    2 1   
     2    1    4 1   
     3    1    5 1   
     4    1    6 1   
     5    2    3 2   
     6    2    7 1   
     7    7    8 1   
     8    7   15 1   
     9    8    9 1   
    10    8   11 1   
    11    8   16 1   
    12    9   10 2   
    13    9   19 1   
    14   11   12 1   
    15   11   17 1   
    16   11   18 1   
    17   12   13 1   
    18   12   14 1   
    19   19   20 1   
    20   19   28 1   
    21   20   21 1   
    22   20   23 1   
    23   20   29 1   
    24   21   22 2   
    25   21   41 1   
    26   23   24 1   
    27   23   30 1   
    28   23   31 1   
    29   24   25 1   
    30   24   32 1   
    31   24   33 1   
    32   25   26 1   
    33   25   34 1   
    34   25   35 1   
    35   26   27 1   
    36   26   36 1   
    37   26   37 1   
    38   27   38 1   
    39   27   39 1   
    40   27   40 1   
    41   41   42 1   
    42   41   49 1   
    43   42   43 1   
    44   42   45 1   
    45   42   50 1   
    46   43   44 2   
    47   43   53 1   
    48   45   46 1   
    49   45   51 1   
    50   45   52 1   
    51   46   47 1   
    52   46   48 1   
    53   53   54 1   
    54   53   57 1   
    55   54   55 1   
    56   54   58 1   
    57   54   59 1   
    58   55   56 2   
    59   55   60 1   
    60   60   61 1   
    61   60   68 1   
    62   61   62 1   
    63   61   64 1   
    64   61   69 1   
    65   62   63 2   
    66   62   74 1   
    67   64   65 1   
    68   64   70 1   
    69   64   71 1   
    70   65   66 1   
    71   65   67 2   
    72   66   72 1   
    73   66   73 1   
    74   74   75 1   
    75   74   78 1   
    76   75   76 1   
    77   75   79 1   
    78   75   80 1   
    79   76   77 2   
    80   76   81 1   
    81   81   82 1   
    82   81   93 1   
    83   82   83 1   
    84   82   85 1   
    85   82   94 1   
    86   83   84 2   
    87   83  102 1   
    88   85   86 1   
    89   85   95 1   
    90   85   96 1   
    91   86   87 ar  
    92   86   88 ar  
    93   87   89 ar  
    94   87   97 1   
    95   88   90 ar  
    96   88   98 1   
    97   89   91 ar  
    98   89   99 1   
    99   90   91 ar  
   100   90  100 1   
   101   91   92 1   
   102   92  101 1   
   103  102  103 1   
   104  102  110 1   
   105  103  104 1   
   106  103  106 1   
   107  103  111 1   
   108  104  105 2   
   109  104  121 1   
   110  106  107 1   
   111  106  108 1   
   112  106  112 1   
   113  107  109 1   
   114  107  113 1   
   115  107  114 1   
   116  108  115 1   
   117  108  116 1   
   118  108  117 1   
   119  109  118 1   
   120  109  119 1   
   121  109  120 1   
   122  121  122 1   
   123  121  127 1   
   124  122  123 1   
   125  122  125 1   
   126  122  128 1   
   127  123  124 2   
   128  123  132 1   
   129  125  126 1   
   130  125  129 1   
   131  125  130 1   
   132  126  131 1   
   133  132  133 1   
   134  132  137 1   
   135  133  134 1   
   136  133  136 1   
   137  133  138 1   
   138  134  135 2   
   139  134  142 1   
   140  136  139 1   
   141  136  140 1   
   142  136  141 1   
   143  142  143 1   
   144  142  147 1   
   145  143  144 1   
   146  143  146 1   
   147  143  148 1   
   148  144  145 2   
   149  144  152 1   
   150  146  149 1   
   151  146  150 1   
   152  146  151 1   
   153  152  153 1   
   154  152  161 1   
   155  153  154 1   
   156  153  156 1   
   157  153  162 1   
   158  154  155 2   
   159  154  167 1   
   160  156  157 1   
   161  156  163 1   
   162  156  164 1   
   163  157  158 1   
   164  157  165 1   
   165  157  166 1   
   166  158  159 1   
   167  158  160 1   
   168  167  168 1   
   169  167  172 1   
   170  168  169 1   
   171  168  170 1   
   172  168  171 1   
   173  174  175 1   
   174  174  176 1   
   175  177  178 1   
   176  177  179 1   
   177  180  181 1   
   178  180  182 1   
@<TRIPOS>SUBSTRUCTURE
     1 MOL         1 TEMP              0 ****  ****    0 ROOT
