@<TRIPOS>MOLECULE
MOL
  175   173     1     0     0
SMALL
resp


@<TRIPOS>ATOM
      1 C1         -6.7890    7.1060    3.1450 c3        1 MOL     -0.348820
      2 C2         -7.3760    6.6840    1.7480 c         1 MOL      0.644198
      3 O1         -6.8760    7.2070    0.7810 o         1 MOL     -0.572936
      4 H1         -5.7750    6.7190    3.2440 hc        1 MOL      0.081919
      5 H2         -6.7710    8.1930    3.2180 hc        1 MOL      0.081919
      6 H3         -7.4120    6.6990    3.9400 hc        1 MOL      0.081919
      7 N1         -8.2510    5.7010    1.6370 n         1 MOL     -0.540675
      8 C3         -8.8860    5.1760    0.4280 c3        1 MOL      0.198520
      9 C4         -7.8970    4.5350   -0.5670 c         1 MOL      0.416869
     10 O2         -8.3570    4.3790   -1.7700 o         1 MOL     -0.511112
     11 C5         -9.8380    4.0510    0.9200 c3        1 MOL     -0.280118
     12 C6        -10.7870    3.6590   -0.2150 c         1 MOL      0.808910
     13 O3        -11.3680    4.5580   -0.7620 o         1 MOL     -0.752309
     14 O4        -11.1370    2.4630   -0.3320 o         1 MOL     -0.752309
     15 H4         -8.4400    5.2160    2.5030 hn        1 MOL      0.283154
     16 H5         -9.4340    5.9880   -0.0320 h1        1 MOL      0.073901
     17 H6        -10.4570    4.3950    1.7430 hc        1 MOL      0.023098
     18 H7         -9.2010    3.2180    1.2260 hc        1 MOL      0.023098
     19 N2         -6.6790    4.1480   -0.0990 n         1 MOL     -0.392076
     20 C7         -5.7240    3.5190   -0.9940 c3        1 MOL      0.267488
     21 C8         -4.8800    2.6400   -0.0790 c         1 MOL      0.472517
     22 O5         -4.4320    3.1440    0.9780 o         1 MOL     -0.544445
     23 C9         -4.8060    4.6080   -1.5740 c3        1 MOL     -0.420513
     24 H8         -6.4400    4.2710    0.8640 hn        1 MOL      0.264883
     25 H9         -6.1840    2.9000   -1.7620 h1        1 MOL     -0.000461
     26 H10        -4.5820    5.4220   -0.8830 hc        1 MOL      0.124721
     27 H11        -3.8380    4.2370   -1.9080 hc        1 MOL      0.124721
     28 H12        -5.3820    5.1320   -2.3260 hc        1 MOL      0.124721
     29 N3         -4.5390    1.3730   -0.3970 n         1 MOL     -0.452208
     30 C10        -4.8690    0.5420   -1.6230 c3        1 MOL      0.013170
     31 C11        -5.1790   -0.9070   -1.1660 c         1 MOL      0.345259
     32 O6         -4.4380   -1.5150   -0.3450 o         1 MOL     -0.471397
     33 C12        -3.7150    0.5120   -2.6150 c3        1 MOL     -0.106872
     34 C13        -2.4700   -0.1050   -1.9520 c         1 MOL      0.748457
     35 O7         -1.6690    0.4910   -1.2120 o         1 MOL     -0.751010
     36 O8         -2.2140   -1.3190   -2.1320 o         1 MOL     -0.751010
     37 H13        -3.8470    0.9700    0.2190 hn        1 MOL      0.310463
     38 H14        -5.7370    0.9170   -2.1700 h1        1 MOL      0.095922
     39 H15        -3.4510    1.4960   -3.0090 hc        1 MOL      0.033658
     40 H16        -4.0430   -0.1210   -3.4290 hc        1 MOL      0.033658
     41 N4         -6.1760   -1.5060   -1.7620 n         1 MOL     -0.281326
     42 C14        -6.5800   -2.8720   -1.3740 c3        1 MOL      0.027240
     43 C15        -6.2890   -3.8760   -2.5360 c         1 MOL      0.523569
     44 O9         -7.0770   -4.0470   -3.4480 o         1 MOL     -0.550363
     45 H17        -6.6790   -0.9900   -2.4700 hn        1 MOL      0.285240
     46 H18        -7.6680   -2.8570   -1.3220 h1        1 MOL      0.056787
     47 H19        -6.2560   -3.1870   -0.3790 h1        1 MOL      0.056787
     48 N5         -5.1790   -4.6590   -2.5980 n         1 MOL     -0.508296
     49 C16        -3.9600   -4.4190   -1.7370 c3        1 MOL      0.092836
     50 C17        -3.9500   -5.2470   -0.4150 c         1 MOL      0.404886
     51 O10        -3.8750   -6.4930   -0.4890 o         1 MOL     -0.538637
     52 C18        -2.7860   -4.5190   -2.6830 c3        1 MOL     -0.070175
     53 C19        -1.4270   -4.2500   -2.0850 c         1 MOL      0.672249
     54 N6         -0.3960   -4.1080   -2.8950 n         1 MOL     -0.755254
     55 O11        -1.2630   -4.0180   -0.8700 o         1 MOL     -0.686727
     56 H20        -5.1390   -5.2790   -3.3940 hn        1 MOL      0.321114
     57 H21        -4.0420   -3.3740   -1.4400 h1        1 MOL      0.115878
     58 H22        -2.9610   -3.9280   -3.5880 hc        1 MOL      0.037192
     59 H23        -2.8100   -5.5530   -3.0170 hc        1 MOL      0.037192
     60 H24        -0.4930   -4.0160   -3.8900 hn        1 MOL      0.348880
     61 H25         0.5400   -3.9530   -2.5430 hn        1 MOL      0.348880
     62 N7         -3.8460   -4.6220    0.7430 n         1 MOL     -0.226015
     63 C20        -3.7970   -5.1330    2.1620 c3        1 MOL     -0.225549
     64 C21        -2.3770   -5.5050    2.5200 c         1 MOL      0.487445
     65 O12        -2.2090   -6.2960    3.4610 o         1 MOL     -0.534877
     66 H26        -3.7170   -3.6230    0.6910 hn        1 MOL      0.209260
     67 H27        -4.5170   -5.9310    2.3400 h1        1 MOL      0.132745
     68 H28        -4.0780   -4.3630    2.8890 h1        1 MOL      0.132745
     69 N8         -1.2980   -5.0990    1.7390 n         1 MOL     -0.154258
     70 C22         0.0900   -5.4130    2.0760 c3        1 MOL     -0.423657
     71 C23         1.0960   -4.2050    1.8690 c         1 MOL      0.592728
     72 O13         0.8260   -3.3520    1.0410 o         1 MOL     -0.602568
     73 C24         0.5640   -6.6040    1.2440 c3        1 MOL      0.501570
     74 C25        -0.2630   -7.9410    1.4380 c3        1 MOL     -0.522338
     75 O14         0.3630   -6.3210   -0.1040 oh        1 MOL     -0.589437
     76 H29        -1.4680   -4.4560    0.9850 hn        1 MOL      0.394884
     77 H30         0.2540   -5.6690    3.1290 h1        1 MOL      0.130519
     78 H31         1.6080   -6.8280    1.4360 h1        1 MOL     -0.018352
     79 H32        -0.3260   -5.6520   -0.1430 ho        1 MOL      0.335839
     80 H33         0.1650   -8.7090    0.7770 hc        1 MOL      0.130022
     81 H34        -0.2980   -8.2160    2.4930 hc        1 MOL      0.130022
     82 H35        -1.2750   -7.8260    1.0450 hc        1 MOL      0.130022
     83 N9          2.2000   -4.1880    2.6560 n         1 MOL     -0.354099
     84 C26         3.1570   -3.0550    2.7600 c3        1 MOL     -0.011915
     85 C27         4.2460   -3.2220    1.6780 c         1 MOL      0.510409
     86 O15         5.0740   -4.0930    1.7830 o         1 MOL     -0.555855
     87 C28         3.6550   -2.8070    4.2230 c3        1 MOL      0.160560
     88 C29         4.5830   -1.6610    4.1670 c3        1 MOL      0.038441
     89 C30         2.5000   -2.6180    5.2950 c3        1 MOL     -0.316313
     90 C31         3.9920   -0.2790    4.1790 c3        1 MOL     -0.110712
     91 H36         2.4140   -4.9250    3.3080 hn        1 MOL      0.254130
     92 H37         2.5290   -2.2100    2.5020 h1        1 MOL      0.114956
     93 H38         4.2020   -3.7200    4.4590 hc        1 MOL     -0.026097
     94 H39         5.3840   -1.8480    3.4620 hc        1 MOL     -0.016699
     95 H40         5.0760   -1.6920    5.1460 hc        1 MOL     -0.016699
     96 H41         1.7290   -3.3860    5.2310 hc        1 MOL      0.077221
     97 H42         3.0090   -2.5510    6.2580 hc        1 MOL      0.077221
     98 H43         2.0100   -1.6610    5.1420 hc        1 MOL      0.077221
     99 H44         4.0150    0.1270    5.1930 hc        1 MOL      0.037266
    100 H45         4.7280    0.3010    3.6230 hc        1 MOL      0.037266
    101 H46         2.9960   -0.2420    3.7470 hc        1 MOL      0.037266
    102 N10         4.2800   -2.3390    0.6500 n         1 MOL     -0.458839
    103 C32         5.0450   -2.5680   -0.5880 c3        1 MOL      0.310321
    104 C33         5.8510   -1.3120   -1.0520 c         1 MOL      0.282287
    105 O16         6.3650   -1.3840   -2.1690 o         1 MOL     -0.494543
    106 C34         4.1610   -3.3370   -1.6080 c3        1 MOL     -0.225512
    107 C35         2.9170   -2.6480   -2.1700 c         1 MOL      0.754942
    108 O17         1.8180   -3.0190   -1.7160 o         1 MOL     -0.691424
    109 O18         2.9880   -1.7410   -3.0030 o         1 MOL     -0.691424
    110 H47         3.5720   -1.6210    0.6010 hn        1 MOL      0.235788
    111 H48         5.7980   -3.3200   -0.3600 h1        1 MOL      0.032261
    112 H49         3.8860   -4.2600   -1.0900 hc        1 MOL      0.054656
    113 H50         4.7900   -3.6770   -2.4400 hc        1 MOL      0.054656
    114 N11         5.9170   -0.1610   -0.3430 n         1 MOL     -0.253107
    115 C36         6.4820    1.0330   -0.9930 c3        1 MOL      0.162937
    116 C37         6.1400    2.3800   -0.2420 c         1 MOL      0.303190
    117 O19         6.0780    2.3280    0.9700 o         1 MOL     -0.460833
    118 C38         8.0240    0.9110   -0.9070 c3        1 MOL     -0.367261
    119 C39         8.7870    1.8480   -1.8040 ca        1 MOL      0.255703
    120 C40         9.6380    2.8280   -1.2570 ca        1 MOL     -0.241003
    121 C41         8.7830    1.4930   -3.1940 ca        1 MOL     -0.241003
    122 C42        10.3950    3.6060   -2.1760 ca        1 MOL     -0.064872
    123 C43         9.6370    2.2490   -4.0380 ca        1 MOL     -0.064872
    124 C44        10.4010    3.3320   -3.5530 ca        1 MOL     -0.198716
    125 H51         5.5330   -0.0200    0.5860 hn        1 MOL      0.204354
    126 H52         6.0000    0.9950   -1.9680 h1        1 MOL      0.089714
    127 H53         8.4050   -0.0540   -1.2440 hc        1 MOL      0.122939
    128 H54         8.2390    1.0250    0.1470 hc        1 MOL      0.122939
    129 H55         9.6710    3.0460   -0.2040 ha        1 MOL      0.154072
    130 H56         8.2360    0.6390   -3.5670 ha        1 MOL      0.154072
    131 H57        11.0710    4.3150   -1.7360 ha        1 MOL      0.093816
    132 H58         9.5830    2.2030   -5.1140 ha        1 MOL      0.093816
    133 H59        10.9860    3.9310   -4.2260 ha        1 MOL      0.124703
    134 N12         5.9950    3.5980   -0.8890 n         1 MOL      0.007972
    135 C45         5.9630    4.9160   -0.1820 c3        1 MOL     -0.025252
    136 C46         4.6150    5.1170    0.5810 c         1 MOL      0.563953
    137 O20         4.4930    6.0660    1.2660 o         1 MOL     -0.566642
    138 C47         6.2800    5.9490   -1.2690 c3        1 MOL     -0.127852
    139 C48         6.0270    5.2490   -2.5940 c3        1 MOL      0.123165
    140 C49         6.3040    3.7420   -2.3270 c3        1 MOL     -0.387955
    141 H60         6.8110    4.9290    0.4940 h1        1 MOL      0.061557
    142 H61         5.5250    6.7270   -1.2020 hc        1 MOL      0.052770
    143 H62         7.2670    6.3950   -1.1620 hc        1 MOL      0.052770
    144 H63         4.9610    5.3220   -2.8340 hc        1 MOL      0.002635
    145 H64         6.6210    5.6760   -3.3990 hc        1 MOL      0.002635
    146 H65         5.5730    3.2790   -2.9850 h1        1 MOL      0.150440
    147 H66         7.3690    3.5610   -2.4690 h1        1 MOL      0.150440
    148 N13         3.6570    4.1920    0.5580 n         1 MOL     -0.244920
    149 C50         2.3620    4.1890    1.2670 c3        1 MOL     -0.283578
    150 C51         2.4610    4.2680    2.7740 c         1 MOL      0.579099
    151 O21         1.5340    4.4820    3.4590 o         1 MOL     -0.534315
    152 C52         1.5650    2.9000    0.9300 c3        1 MOL     -0.062147
    153 C53         2.3250    1.6520    1.4770 c3        1 MOL      0.026548
    154 C54         1.6000    0.4050    0.9840 c         1 MOL      0.671416
    155 O22         2.1290   -0.2890    0.1030 o         1 MOL     -0.718434
    156 O23         0.5430    0.0370    1.5080 o         1 MOL     -0.718434
    157 H67         3.6990    3.4490   -0.1250 hn        1 MOL      0.181177
    158 H68         1.7590    5.0290    0.9250 h1        1 MOL      0.142068
    159 H69         1.3730    2.6840   -0.1220 hc        1 MOL      0.087767
    160 H70         0.5570    2.9650    1.3490 hc        1 MOL      0.087767
    161 H71         2.4170    1.6610    2.5670 hc        1 MOL     -0.040020
    162 H72         3.3180    1.6450    1.0330 hc        1 MOL     -0.040020
    163 N14         3.6360    4.0450    3.3230 n         1 MOL     -0.095779
    164 C55         3.9070    4.2260    4.7340 c3        1 MOL     -0.272846
    165 H73         4.9650    4.0520    4.9260 h1        1 MOL      0.097363
    166 H74         3.6470    5.2440    5.0270 h1        1 MOL      0.097363
    167 H75         3.3130    3.5180    5.3120 h1        1 MOL      0.097363
    168 H76         4.4220    3.7260    2.7640 hn        1 MOL      0.143772
    169 Ca1        -0.0020   -1.5540   -0.6180 Ca        1 MOL      1.760515
    170 O24         0.8510   -0.1650   -2.9160 oh        1 MOL     -0.936859
    171 H77         0.7600    0.5060   -3.5920 ho        1 MOL      0.426615
    172 H78         1.6550   -0.6410   -3.1490 ho        1 MOL      0.426615
    173 O25        -2.2870   -2.0600    1.1060 oh        1 MOL     -0.936859
    174 H79        -2.1500   -1.4610    1.8470 ho        1 MOL      0.426615
    175 H80        -3.1190   -1.7760    0.7240 ho        1 MOL      0.426615
@<TRIPOS>BOND
     1    1    2 1   
     2    1    4 1   
     3    1    5 1   
     4    1    6 1   
     5    2    3 2   
     6    2    7 1   
     7    7    8 1   
     8    7   15 1   
     9    8    9 1   
    10    8   11 1   
    11    8   16 1   
    12    9   10 2   
    13    9   19 1   
    14   11   12 1   
    15   11   17 1   
    16   11   18 1   
    17   12   13 1   
    18   12   14 1   
    19   19   20 1   
    20   19   24 1   
    21   20   21 1   
    22   20   23 1   
    23   20   25 1   
    24   21   22 2   
    25   21   29 1   
    26   23   26 1   
    27   23   27 1   
    28   23   28 1   
    29   29   30 1   
    30   29   37 1   
    31   30   31 1   
    32   30   33 1   
    33   30   38 1   
    34   31   32 2   
    35   31   41 1   
    36   33   34 1   
    37   33   39 1   
    38   33   40 1   
    39   34   35 1   
    40   34   36 1   
    41   41   42 1   
    42   41   45 1   
    43   42   43 1   
    44   42   46 1   
    45   42   47 1   
    46   43   44 2   
    47   43   48 1   
    48   48   49 1   
    49   48   56 1   
    50   49   50 1   
    51   49   52 1   
    52   49   57 1   
    53   50   51 2   
    54   50   62 1   
    55   52   53 1   
    56   52   58 1   
    57   52   59 1   
    58   53   54 1   
    59   53   55 2   
    60   54   60 1   
    61   54   61 1   
    62   62   63 1   
    63   62   66 1   
    64   63   64 1   
    65   63   67 1   
    66   63   68 1   
    67   64   65 2   
    68   64   69 1   
    69   69   70 1   
    70   69   76 1   
    71   70   71 1   
    72   70   73 1   
    73   70   77 1   
    74   71   72 2   
    75   71   83 1   
    76   73   74 1   
    77   73   75 1   
    78   73   78 1   
    79   74   80 1   
    80   74   81 1   
    81   74   82 1   
    82   75   79 1   
    83   83   84 1   
    84   83   91 1   
    85   84   85 1   
    86   84   87 1   
    87   84   92 1   
    88   85   86 2   
    89   85  102 1   
    90   87   88 1   
    91   87   89 1   
    92   87   93 1   
    93   88   90 1   
    94   88   94 1   
    95   88   95 1   
    96   89   96 1   
    97   89   97 1   
    98   89   98 1   
    99   90   99 1   
   100   90  100 1   
   101   90  101 1   
   102  102  103 1   
   103  102  110 1   
   104  103  104 1   
   105  103  106 1   
   106  103  111 1   
   107  104  105 2   
   108  104  114 1   
   109  106  107 1   
   110  106  112 1   
   111  106  113 1   
   112  107  108 1   
   113  107  109 1   
   114  114  115 1   
   115  114  125 1   
   116  115  116 1   
   117  115  118 1   
   118  115  126 1   
   119  116  117 2   
   120  116  134 1   
   121  118  119 1   
   122  118  127 1   
   123  118  128 1   
   124  119  120 ar  
   125  119  121 ar  
   126  120  122 ar  
   127  120  129 1   
   128  121  123 ar  
   129  121  130 1   
   130  122  124 ar  
   131  122  131 1   
   132  123  124 ar  
   133  123  132 1   
   134  124  133 1   
   135  134  135 1   
   136  134  140 1   
   137  135  136 1   
   138  135  138 1   
   139  135  141 1   
   140  136  137 2   
   141  136  148 1   
   142  138  139 1   
   143  138  142 1   
   144  138  143 1   
   145  139  140 1   
   146  139  144 1   
   147  139  145 1   
   148  140  146 1   
   149  140  147 1   
   150  148  149 1   
   151  148  157 1   
   152  149  150 1   
   153  149  152 1   
   154  149  158 1   
   155  150  151 2   
   156  150  163 1   
   157  152  153 1   
   158  152  159 1   
   159  152  160 1   
   160  153  154 1   
   161  153  161 1   
   162  153  162 1   
   163  154  155 1   
   164  154  156 1   
   165  163  164 1   
   166  163  168 1   
   167  164  165 1   
   168  164  166 1   
   169  164  167 1   
   170  170  171 1   
   171  170  172 1   
   172  173  174 1   
   173  173  175 1   
@<TRIPOS>SUBSTRUCTURE
     1 MOL         1 TEMP              0 ****  ****    0 ROOT
