@<TRIPOS>MOLECULE
MOL
  192   187     1     0     0
SMALL
resp


@<TRIPOS>ATOM
      1 C1          4.0340   -2.0290   -2.7800 c3        1 MOL     -0.400834
      2 C2          3.0610   -2.6710   -1.7530 c         1 MOL      0.567865
      3 O1          1.9800   -2.1270   -1.4790 o         1 MOL     -0.489826
      4 H1          3.4640   -1.4420   -3.5000 hc        1 MOL      0.099432
      5 H2          4.7380   -1.3810   -2.2590 hc        1 MOL      0.099432
      6 H3          4.5800   -2.8140   -3.3030 hc        1 MOL      0.099432
      7 N1          3.3630   -3.8640   -1.2130 n         1 MOL     -0.203997
      8 C3          2.6820   -4.6680   -0.1970 c3        1 MOL     -0.429632
      9 C4          1.1620   -4.8960   -0.4300 c         1 MOL      0.831712
     10 O2          0.3260   -5.0040    0.5190 o         1 MOL     -0.550530
     11 C5          3.0300   -4.1750    1.1820 c3        1 MOL     -0.332638
     12 C6          4.5360   -4.3390    1.4650 c         1 MOL      0.951079
     13 O3          5.0690   -3.5110    2.2530 o         1 MOL     -0.803304
     14 O4          5.1770   -5.3090    0.9610 o         1 MOL     -0.803304
     15 H4          4.2890   -4.2140   -1.4520 hn        1 MOL      0.148090
     16 H5          3.0510   -5.6840   -0.3310 h1        1 MOL      0.193232
     17 H6          2.5130   -4.7960    1.9190 hc        1 MOL      0.143635
     18 H7          2.7970   -3.1200    1.3010 hc        1 MOL      0.143635
     19 N2          0.7220   -5.1470   -1.6990 n         1 MOL     -0.663060
     20 C7         -0.7750   -5.3490   -2.0320 c3        1 MOL     -0.000463
     21 C8         -1.2450   -6.6900   -1.4600 c         1 MOL      0.521540
     22 O5         -0.5170   -7.6730   -1.4550 o         1 MOL     -0.584155
     23 C9         -0.9880   -5.1730   -3.5420 c3        1 MOL      0.198005
     24 C10        -0.1780   -6.1610   -4.5010 c3        1 MOL      0.030194
     25 C11        -0.7190   -3.6770   -3.8590 c3        1 MOL     -0.343452
     26 C12        -0.9610   -6.3830   -5.8370 c3        1 MOL     -0.148314
     27 H8          1.3310   -5.1800   -2.4980 hn        1 MOL      0.303370
     28 H9         -1.2570   -4.5390   -1.4870 h1        1 MOL      0.164953
     29 H10        -2.0450   -5.4320   -3.6380 hc        1 MOL     -0.013741
     30 H11         0.0620   -7.0490   -3.9260 hc        1 MOL     -0.005405
     31 H12         0.7990   -5.7550   -4.7830 hc        1 MOL     -0.005405
     32 H13        -1.5830   -3.1190   -3.5020 hc        1 MOL      0.082236
     33 H14         0.1630   -3.2110   -3.4110 hc        1 MOL      0.082236
     34 H15        -0.6030   -3.6110   -4.9430 hc        1 MOL      0.082236
     35 H16        -0.3670   -7.0110   -6.5090 hc        1 MOL      0.026919
     36 H17        -1.8950   -6.9360   -5.8350 hc        1 MOL      0.026919
     37 H18        -1.0650   -5.4130   -6.3250 hc        1 MOL      0.026919
     38 N3         -2.4890   -6.7840   -1.0650 n         1 MOL     -0.408797
     39 C13        -3.5390   -5.7120   -0.8080 c3        1 MOL      0.214947
     40 C14        -4.3050   -6.1040    0.4720 c         1 MOL      0.429813
     41 O6         -4.1090   -7.1610    1.0790 o         1 MOL     -0.555674
     42 C15        -4.5890   -5.7560   -1.9530 c3        1 MOL     -0.336160
     43 C16        -5.5590   -4.5150   -1.9900 c         1 MOL      0.710033
     44 O7         -6.5420   -4.5670   -2.7500 o         1 MOL     -0.696061
     45 O8         -5.4360   -3.5140   -1.2270 o         1 MOL     -0.696061
     46 H19        -2.7950   -7.7450   -1.0460 hn        1 MOL      0.260505
     47 H20        -3.1110   -4.7180   -0.7360 h1        1 MOL      0.000458
     48 H21        -5.1230   -6.6950   -2.0790 hc        1 MOL      0.069399
     49 H22        -4.0460   -5.7970   -2.8990 hc        1 MOL      0.069399
     50 N4         -5.0030   -5.1020    1.0770 n         1 MOL     -0.235025
     51 C17        -5.6240   -5.1430    2.3970 c3        1 MOL      0.002848
     52 C18        -6.3180   -3.8730    2.8230 c         1 MOL      0.453420
     53 O9         -7.4790   -3.9580    3.1150 o         1 MOL     -0.547640
     54 H23        -5.2080   -4.2780    0.5380 hn        1 MOL      0.176644
     55 H24        -4.9450   -5.4450    3.1910 h1        1 MOL      0.037384
     56 H25        -6.3940   -5.9180    2.4060 h1        1 MOL      0.037384
     57 N5         -5.6250   -2.7120    2.8600 n         1 MOL     -0.269861
     58 C19        -6.2090   -1.4340    3.2760 c3        1 MOL      0.013676
     59 C20        -7.0920   -0.8640    2.1420 c         1 MOL      0.534052
     60 O10        -8.1750   -0.3790    2.4970 o         1 MOL     -0.604989
     61 C21        -5.1170   -0.4030    3.5380 c3        1 MOL     -0.349402
     62 C22        -4.0540   -0.4550    2.4110 c         1 MOL      0.731175
     63 O11        -3.1940   -1.2970    2.4710 o         1 MOL     -0.675926
     64 O12        -4.1720    0.2900    1.4370 o         1 MOL     -0.675926
     65 H26        -4.6360   -2.7100    2.6650 hn        1 MOL      0.180879
     66 H27        -6.7670   -1.5460    4.2040 h1        1 MOL      0.065539
     67 H28        -4.5850   -0.7470    4.4280 hc        1 MOL      0.081661
     68 H29        -5.5220    0.5780    3.7340 hc        1 MOL      0.081661
     69 N6         -6.6850   -0.9590    0.8910 n         1 MOL     -0.206834
     70 C23        -7.4380   -0.2610   -0.1850 c3        1 MOL     -0.125388
     71 C24        -7.5510    1.2920   -0.0970 c         1 MOL      0.538579
     72 O13        -8.2760    1.8800   -0.8830 o         1 MOL     -0.571360
     73 H30        -5.7610   -1.2990    0.6550 hn        1 MOL      0.276479
     74 H31        -8.3810   -0.7770   -0.3480 h1        1 MOL      0.090421
     75 H32        -6.9130   -0.5700   -1.0890 h1        1 MOL      0.090421
     76 N7         -6.7510    1.8690    0.8190 n         1 MOL     -0.262288
     77 C25        -6.6360    3.3430    1.0080 c3        1 MOL      0.033808
     78 C26        -6.2830    4.1750   -0.3000 c         1 MOL      0.305539
     79 O14        -6.4580    5.3850   -0.2770 o         1 MOL     -0.470600
     80 C27        -7.9720    3.8980    1.6040 c3        1 MOL      0.239815
     81 C28        -8.1880    3.4700    3.0290 c3        1 MOL     -0.304415
     82 C29        -7.3710    4.3110    3.9650 c         1 MOL      0.688335
     83 N8         -7.4590    4.0060    5.2510 n         1 MOL     -0.863972
     84 O15        -6.6350    5.1590    3.6150 o         1 MOL     -0.534065
     85 H33        -6.2140    1.2450    1.4090 hn        1 MOL      0.111824
     86 H34        -5.7610    3.5980    1.6020 h1        1 MOL      0.116004
     87 H35        -8.8740    3.5850    1.0770 hc        1 MOL     -0.039884
     88 H36        -7.9420    4.9890    1.5490 hc        1 MOL     -0.039884
     89 H37        -7.9360    2.4100    3.1380 hc        1 MOL      0.075457
     90 H38        -9.2650    3.5140    3.1990 hc        1 MOL      0.075457
     91 H39        -8.1000    3.2690    5.5000 hn        1 MOL      0.364340
     92 H40        -6.8520    4.4900    5.8970 hn        1 MOL      0.364340
     93 N9         -5.5710    3.6050   -1.2960 n         1 MOL     -0.213999
     94 C30        -5.1260    4.3140   -2.5290 c3        1 MOL     -0.115259
     95 C31        -3.6430    4.1750   -2.8260 c         1 MOL      0.508357
     96 O16        -3.1440    4.7620   -3.7750 o         1 MOL     -0.585201
     97 C32        -5.9600    3.8510   -3.7230 c3        1 MOL      0.168607
     98 C33        -5.8080    2.3600   -4.0370 c3        1 MOL     -0.252715
     99 C34        -7.4430    4.0580   -3.5040 c3        1 MOL     -0.252715
    100 H41        -5.4620    2.6050   -1.1980 hn        1 MOL      0.255721
    101 H42        -5.2570    5.3850   -2.3670 h1        1 MOL      0.120958
    102 H43        -5.7370    4.4020   -4.6340 hc        1 MOL     -0.000902
    103 H44        -6.1830    1.8700   -3.1410 hc        1 MOL      0.061137
    104 H45        -6.3450    1.9660   -4.9010 hc        1 MOL      0.061137
    105 H46        -4.7680    2.0440   -4.1910 hc        1 MOL      0.061137
    106 H47        -7.9400    4.2040   -4.4610 hc        1 MOL      0.061137
    107 H48        -7.9750    3.2630   -2.9650 hc        1 MOL      0.061137
    108 H49        -7.5780    4.9150   -2.8580 hc        1 MOL      0.061137
    109 N10        -2.9270    3.3730   -2.0910 n         1 MOL     -0.355800
    110 C35        -1.5580    2.9980   -2.3190 c3        1 MOL      0.467513
    111 C36        -0.7200    3.1970   -1.0800 c         1 MOL      0.336811
    112 O17        -1.2740    3.1970    0.0050 o         1 MOL     -0.487093
    113 C37        -1.5290    1.5420   -2.8780 c3        1 MOL     -0.323124
    114 C38        -0.1550    0.8810   -2.9830 c         1 MOL      0.660046
    115 N11        -0.0110   -0.1900   -2.2450 n         1 MOL     -0.707625
    116 O18         0.7400    1.2940   -3.6830 o         1 MOL     -0.604937
    117 H50        -3.4880    2.9850   -1.3490 hn        1 MOL      0.151286
    118 H51        -1.1620    3.6710   -3.0850 h1        1 MOL     -0.028911
    119 H52        -1.8550    1.5080   -3.9170 hc        1 MOL      0.079846
    120 H53        -2.1300    0.8470   -2.2970 hc        1 MOL      0.079846
    121 H54        -0.7630   -0.4670   -1.6290 hn        1 MOL      0.338705
    122 H55         0.8220   -0.7630   -2.2280 hn        1 MOL      0.338705
    123 N12         0.6010    3.2930   -1.2080 n         1 MOL     -0.387803
    124 C39         1.4480    3.5690   -0.0620 c3        1 MOL      0.131124
    125 C40         2.7640    4.1310   -0.5470 c         1 MOL      0.459708
    126 O19         3.1160    3.7770   -1.6940 o         1 MOL     -0.543733
    127 C41         1.6420    2.3000    0.7210 c3        1 MOL     -0.248495
    128 C42         2.1120    2.4780    2.1970 ca        1 MOL     -0.050839
    129 C43         3.3650    2.0890    2.5530 ca        1 MOL     -0.013308
    130 C44         1.2440    2.8710    3.2590 ca        1 MOL     -0.013308
    131 C45         3.9030    2.1360    3.8260 ca        1 MOL     -0.327542
    132 C46         1.7790    3.0040    4.5410 ca        1 MOL     -0.327542
    133 C47         3.1040    2.6090    4.8710 ca        1 MOL      0.387692
    134 O20         3.4290    2.6470    6.2340 oh        1 MOL     -0.549928
    135 H56         1.0210    3.1650   -2.1220 hn        1 MOL      0.269881
    136 H57         0.8820    4.2460    0.5640 h1        1 MOL      0.062065
    137 H58         2.3200    1.6610    0.1430 hc        1 MOL      0.130900
    138 H59         0.6970    1.7700    0.7420 hc        1 MOL      0.130900
    139 H60         3.9840    1.6840    1.7650 ha        1 MOL      0.117536
    140 H61         0.2210    3.2200    3.1440 ha        1 MOL      0.117536
    141 H62         4.9450    1.8550    3.9520 ha        1 MOL      0.150104
    142 H63         1.0720    3.3120    5.2990 ha        1 MOL      0.150104
    143 H64         4.3760    2.7600    6.3750 ho        1 MOL      0.377981
    144 N13         3.5350    4.9730    0.2070 n         1 MOL     -0.425181
    145 C48         4.9050    5.2870   -0.0380 c3        1 MOL      0.155922
    146 C49         5.8370    4.4090    0.7800 c         1 MOL      0.560986
    147 O21         5.9680    4.7330    1.9470 o         1 MOL     -0.605318
    148 C50         5.1290    6.7540    0.2230 c3        1 MOL      0.058404
    149 C51         4.3860    7.4430   -0.9290 c3        1 MOL     -0.097522
    150 C52         4.5190    8.9740   -0.8900 c         1 MOL      0.648034
    151 O22         3.7160    9.6690   -0.2520 o         1 MOL     -0.682455
    152 O23         5.5760    9.4510   -1.3680 o         1 MOL     -0.682455
    153 H65         3.1470    5.2660    1.0920 hn        1 MOL      0.266030
    154 H66         5.1170    5.2040   -1.1130 h1        1 MOL      0.075810
    155 H67         6.1960    6.9740    0.1600 hc        1 MOL      0.012657
    156 H68         4.7060    7.0690    1.1910 hc        1 MOL      0.012657
    157 H69         3.3060    7.3120   -0.8220 hc        1 MOL     -0.007555
    158 H70         4.6800    7.0940   -1.9140 hc        1 MOL     -0.007555
    159 N14         6.4660    3.2650    0.3890 n         1 MOL     -0.497330
    160 C53         6.2550    2.6040   -0.8900 c3        1 MOL     -0.161459
    161 C54         6.9560    3.3320   -2.1050 c         1 MOL      0.476250
    162 O24         8.0290    3.9350   -1.9450 o         1 MOL     -0.519052
    163 C55         6.8440    1.1400   -0.8800 c3        1 MOL     -0.046489
    164 C56         6.1630    0.1490    0.1310 c3        1 MOL     -0.188600
    165 C57         6.8840   -1.1930    0.4170 c         1 MOL      0.659720
    166 O25         6.5240   -2.2530   -0.1560 o         1 MOL     -0.678827
    167 O26         7.6910   -1.2910    1.3770 o         1 MOL     -0.678827
    168 H71         7.1570    2.8570    0.9990 hn        1 MOL      0.339885
    169 H72         5.1760    2.5730   -1.0620 h1        1 MOL      0.168996
    170 H73         7.8890    1.2020   -0.5690 hc        1 MOL      0.038428
    171 H74         6.8450    0.7600   -1.8990 hc        1 MOL      0.038428
    172 H75         5.1520    0.0110   -0.2430 hc        1 MOL      0.059947
    173 H76         6.0610    0.6470    1.1070 hc        1 MOL      0.059947
    174 N15         6.2640    3.3350   -3.2710 n         1 MOL     -0.269838
    175 C58         6.6410    4.1490   -4.4200 c3        1 MOL     -0.199378
    176 H77         7.2140    3.5430   -5.1210 h1        1 MOL      0.092410
    177 H78         5.7430    4.5200   -4.9130 h1        1 MOL      0.092410
    178 H79         7.2480    4.9900   -4.0880 h1        1 MOL      0.092410
    179 H80         5.3890    2.8400   -3.3700 hn        1 MOL      0.266597
    180 Ca1         7.5580   -4.0070    1.4170 Ca        1 MOL      1.645098
    181 O27         6.8060   -5.4410    3.7610 oh        1 MOL     -0.822091
    182 H81         6.0010   -5.4530    4.2790 ho        1 MOL      0.393839
    183 H82         7.2440   -6.2590    3.9760 ho        1 MOL      0.393839
    184 O28         9.2010   -5.9730    2.0660 oh        1 MOL     -0.822091
    185 H83         9.3670   -6.0750    2.9980 ho        1 MOL      0.393839
    186 H84         9.7470   -6.6380    1.6560 ho        1 MOL      0.393839
    187 O29        10.0640   -3.6070   -0.0790 oh        1 MOL     -0.822091
    188 H85        10.5090   -4.4550   -0.0980 ho        1 MOL      0.393839
    189 H86        10.6080   -3.0400   -0.6250 ho        1 MOL      0.393839
    190 O30         9.1040   -3.0090    3.4770 oh        1 MOL     -0.822091
    191 H87         8.7330   -3.0700    4.3630 ho        1 MOL      0.393839
    192 H88         9.8080   -2.3680    3.5590 ho        1 MOL      0.393839
@<TRIPOS>BOND
     1    1    2 1   
     2    1    4 1   
     3    1    5 1   
     4    1    6 1   
     5    2    3 2   
     6    2    7 1   
     7    7    8 1   
     8    7   15 1   
     9    8    9 1   
    10    8   11 1   
    11    8   16 1   
    12    9   10 2   
    13    9   19 1   
    14   11   12 1   
    15   11   17 1   
    16   11   18 1   
    17   12   13 1   
    18   12   14 1   
    19   19   20 1   
    20   19   27 1   
    21   20   21 1   
    22   20   23 1   
    23   20   28 1   
    24   21   22 2   
    25   21   38 1   
    26   23   24 1   
    27   23   25 1   
    28   23   29 1   
    29   24   26 1   
    30   24   30 1   
    31   24   31 1   
    32   25   32 1   
    33   25   33 1   
    34   25   34 1   
    35   26   35 1   
    36   26   36 1   
    37   26   37 1   
    38   38   39 1   
    39   38   46 1   
    40   39   40 1   
    41   39   42 1   
    42   39   47 1   
    43   40   41 2   
    44   40   50 1   
    45   42   43 1   
    46   42   48 1   
    47   42   49 1   
    48   43   44 1   
    49   43   45 1   
    50   50   51 1   
    51   50   54 1   
    52   51   52 1   
    53   51   55 1   
    54   51   56 1   
    55   52   53 2   
    56   52   57 1   
    57   57   58 1   
    58   57   65 1   
    59   58   59 1   
    60   58   61 1   
    61   58   66 1   
    62   59   60 2   
    63   59   69 1   
    64   61   62 1   
    65   61   67 1   
    66   61   68 1   
    67   62   63 1   
    68   62   64 1   
    69   69   70 1   
    70   69   73 1   
    71   70   71 1   
    72   70   74 1   
    73   70   75 1   
    74   71   72 2   
    75   71   76 1   
    76   76   77 1   
    77   76   85 1   
    78   77   78 1   
    79   77   80 1   
    80   77   86 1   
    81   78   79 2   
    82   78   93 1   
    83   80   81 1   
    84   80   87 1   
    85   80   88 1   
    86   81   82 1   
    87   81   89 1   
    88   81   90 1   
    89   82   83 1   
    90   82   84 2   
    91   83   91 1   
    92   83   92 1   
    93   93   94 1   
    94   93  100 1   
    95   94   95 1   
    96   94   97 1   
    97   94  101 1   
    98   95   96 2   
    99   95  109 1   
   100   97   98 1   
   101   97   99 1   
   102   97  102 1   
   103   98  103 1   
   104   98  104 1   
   105   98  105 1   
   106   99  106 1   
   107   99  107 1   
   108   99  108 1   
   109  109  110 1   
   110  109  117 1   
   111  110  111 1   
   112  110  113 1   
   113  110  118 1   
   114  111  112 2   
   115  111  123 1   
   116  113  114 1   
   117  113  119 1   
   118  113  120 1   
   119  114  115 1   
   120  114  116 2   
   121  115  121 1   
   122  115  122 1   
   123  123  124 1   
   124  123  135 1   
   125  124  125 1   
   126  124  127 1   
   127  124  136 1   
   128  125  126 2   
   129  125  144 1   
   130  127  128 1   
   131  127  137 1   
   132  127  138 1   
   133  128  129 ar  
   134  128  130 ar  
   135  129  131 ar  
   136  129  139 1   
   137  130  132 ar  
   138  130  140 1   
   139  131  133 ar  
   140  131  141 1   
   141  132  133 ar  
   142  132  142 1   
   143  133  134 1   
   144  134  143 1   
   145  144  145 1   
   146  144  153 1   
   147  145  146 1   
   148  145  148 1   
   149  145  154 1   
   150  146  147 2   
   151  146  159 1   
   152  148  149 1   
   153  148  155 1   
   154  148  156 1   
   155  149  150 1   
   156  149  157 1   
   157  149  158 1   
   158  150  151 1   
   159  150  152 1   
   160  159  160 1   
   161  159  168 1   
   162  160  161 1   
   163  160  163 1   
   164  160  169 1   
   165  161  162 2   
   166  161  174 1   
   167  163  164 1   
   168  163  170 1   
   169  163  171 1   
   170  164  165 1   
   171  164  172 1   
   172  164  173 1   
   173  165  166 1   
   174  165  167 1   
   175  174  175 1   
   176  174  179 1   
   177  175  176 1   
   178  175  177 1   
   179  175  178 1   
   180  181  182 1   
   181  181  183 1   
   182  184  185 1   
   183  184  186 1   
   184  187  188 1   
   185  187  189 1   
   186  190  191 1   
   187  190  192 1   
@<TRIPOS>SUBSTRUCTURE
     1 MOL         1 TEMP              0 ****  ****    0 ROOT
