@<TRIPOS>MOLECULE
MOL
  185   180     1     0     0
SMALL
resp


@<TRIPOS>ATOM
      1 C1          5.9130   -0.3710    4.7880 c3        1 MOL     -0.436991
      2 C2          6.0300    0.1340    3.3530 c         1 MOL      0.626024
      3 O1          5.1670   -0.1510    2.5300 o         1 MOL     -0.509464
      4 H1          6.8520   -0.1900    5.3130 hc        1 MOL      0.115528
      5 H2          5.1070    0.1580    5.2960 hc        1 MOL      0.115528
      6 H3          5.7010   -1.4400    4.7820 hc        1 MOL      0.115528
      7 N1          7.1360    0.8720    3.0590 n         1 MOL     -0.416553
      8 C3          7.3820    1.4950    1.7510 c3        1 MOL     -0.174406
      9 C4          7.1360    0.6260    0.4740 c         1 MOL      0.569437
     10 O2          6.7120    1.0790   -0.5910 o         1 MOL     -0.529970
     11 C5          6.6810    2.8510    1.7820 c3        1 MOL     -0.027182
     12 C6          6.8600    3.6670    3.0740 c         1 MOL      0.659028
     13 O3          5.9790    4.5070    3.3030 o         1 MOL     -0.650545
     14 O4          7.9770    3.6500    3.6480 o         1 MOL     -0.650545
     15 H4          7.7820    1.0420    3.8150 hn        1 MOL      0.276071
     16 H5          8.4370    1.7210    1.6810 h1        1 MOL      0.082042
     17 H6          5.6380    2.5250    1.7660 hc        1 MOL      0.049460
     18 H7          6.9390    3.4080    0.8800 hc        1 MOL      0.049460
     19 N2          7.4330   -0.6660    0.6250 n         1 MOL     -0.340138
     20 C7          7.4660   -1.7050   -0.4140 c3        1 MOL      0.023305
     21 C8          6.1190   -2.4080   -0.7950 c         1 MOL      0.486088
     22 O5          6.1180   -3.0750   -1.8410 o         1 MOL     -0.548904
     23 C9          8.5100   -2.7280   -0.0470 c3        1 MOL      0.044842
     24 C10         9.4160   -3.0690   -1.2310 c3        1 MOL      0.082705
     25 C11        10.5880   -3.9820   -0.6960 c3        1 MOL     -0.140132
     26 C12        11.4600   -4.5080   -1.9110 c3        1 MOL      0.085959
     27 N3         12.6700   -5.0740   -1.5160 n4        1 MOL     -0.150605
     28 H8          7.7600   -0.9310    1.5360 hn        1 MOL      0.196719
     29 H9          7.7600   -1.1730   -1.3290 h1        1 MOL      0.079258
     30 H10         8.0000   -3.6130    0.3340 hc        1 MOL     -0.010068
     31 H11         9.1100   -2.2680    0.7350 hc        1 MOL     -0.010068
     32 H12         9.7940   -2.1170   -1.5870 hc        1 MOL      0.001604
     33 H13         8.7880   -3.5850   -1.9480 hc        1 MOL      0.001604
     34 H14        10.0820   -4.7900   -0.1860 hc        1 MOL      0.053572
     35 H15        11.2020   -3.4060    0.0040 hc        1 MOL      0.053572
     36 H16        11.7210   -3.6990   -2.5900 hx        1 MOL      0.059051
     37 H17        10.8930   -5.2200   -2.4960 hx        1 MOL      0.059051
     38 H18        13.2380   -5.2020   -2.3420 hn        1 MOL      0.234571
     39 H19        13.2250   -4.6110   -0.8170 hn        1 MOL      0.234571
     40 H20        12.5220   -5.9750   -1.0670 hn        1 MOL      0.234571
     41 N4          5.0560   -2.2310   -0.0700 n         1 MOL     -0.277906
     42 C13         3.8290   -2.9140   -0.3310 c3        1 MOL     -0.014602
     43 C14         3.1870   -2.5000   -1.6370 c         1 MOL      0.436395
     44 O6          3.2710   -1.3820   -2.1010 o         1 MOL     -0.431050
     45 C15         2.8680   -2.6710    0.8480 c3        1 MOL     -0.035661
     46 C16         1.5240   -3.3730    0.7930 c         1 MOL      0.504701
     47 O7          1.3360   -4.4430    1.4680 o         1 MOL     -0.659242
     48 O8          0.5890   -2.8620    0.0760 o         1 MOL     -0.659242
     49 H21         5.1240   -1.6800    0.7720 hn        1 MOL      0.206308
     50 H22         3.9060   -3.9950   -0.4150 h1        1 MOL      0.032442
     51 H23         2.7830   -1.6140    1.0860 hc        1 MOL      0.059023
     52 H24         3.4120   -2.9750    1.7400 hc        1 MOL      0.059023
     53 N5          2.4380   -3.4200   -2.2320 n         1 MOL     -0.376379
     54 C17         1.7100   -3.2370   -3.5200 c3        1 MOL     -0.130222
     55 C18         0.3710   -2.5440   -3.5080 c         1 MOL      0.333605
     56 O9         -0.0910   -2.3050   -4.6490 o         1 MOL     -0.523293
     57 H25         2.4830   -4.3300   -1.7880 hn        1 MOL      0.276680
     58 H26         1.5890   -4.2790   -3.8360 h1        1 MOL      0.115845
     59 H27         2.3560   -2.7550   -4.2500 h1        1 MOL      0.115845
     60 N6         -0.1040   -1.9660   -2.3930 n         1 MOL     -0.004029
     61 C19        -1.1280   -0.8940   -2.4700 c3        1 MOL     -0.072245
     62 C20        -0.5840    0.5300   -2.5870 c         1 MOL      0.545817
     63 O10        -1.3520    1.4530   -2.8500 o         1 MOL     -0.498958
     64 C21        -2.1960   -1.0290   -1.3760 c3        1 MOL     -0.440254
     65 C22        -2.6680   -2.4400   -1.5300 c         1 MOL      0.698791
     66 N7         -3.3210   -2.8160   -2.6420 n         1 MOL     -0.874852
     67 O11        -2.4570   -3.2410   -0.6820 o         1 MOL     -0.504299
     68 H28         0.1790   -2.3710   -1.5160 hn        1 MOL      0.162977
     69 H29        -1.6820   -0.9220   -3.4130 h1        1 MOL      0.062562
     70 H30        -3.0230   -0.3310   -1.4150 hc        1 MOL      0.186926
     71 H31        -1.6800   -0.9180   -0.4190 hc        1 MOL      0.186926
     72 H32        -3.6220   -2.1490   -3.3450 hn        1 MOL      0.408278
     73 H33        -3.6880   -3.7590   -2.6740 hn        1 MOL      0.408278
     74 N8          0.7270    0.7710   -2.3740 n         1 MOL     -0.260707
     75 C23         1.3980    2.0050   -2.6520 c3        1 MOL     -0.039042
     76 C24         1.1870    2.9130   -1.3850 c         1 MOL      0.659657
     77 O12         1.1050    2.2790   -0.2980 o         1 MOL     -0.528437
     78 H34         1.2820   -0.0250   -2.0980 hn        1 MOL      0.191108
     79 H35         0.8930    2.4570   -3.5070 h1        1 MOL      0.070127
     80 H36         2.4700    1.9090   -2.8460 h1        1 MOL      0.070127
     81 N9          1.0510    4.2770   -1.4080 n         1 MOL     -0.679349
     82 C25         0.4180    5.1870   -0.4060 c3        1 MOL      0.184875
     83 C26        -1.0150    4.8480   -0.0770 c         1 MOL      0.463176
     84 O13        -1.9320    5.5760   -0.4780 o         1 MOL     -0.553182
     85 C27         1.4330    5.4530    0.7690 c3        1 MOL     -0.218402
     86 C28         2.6270    6.2420    0.2950 ca        1 MOL      0.099080
     87 C29         2.4970    7.4240   -0.3670 ca        1 MOL     -0.122249
     88 C30         3.8920    5.6740    0.5120 ca        1 MOL     -0.122249
     89 C31         3.7210    8.0220   -0.8360 ca        1 MOL     -0.298329
     90 C32         5.0650    6.2980    0.0900 ca        1 MOL     -0.298329
     91 C33         4.9520    7.4790   -0.6060 ca        1 MOL      0.417872
     92 O14         6.0700    8.1040   -1.1210 oh        1 MOL     -0.595581
     93 H37         1.2820    4.6950   -2.3000 hn        1 MOL      0.336497
     94 H38         0.4490    6.1440   -0.9220 h1        1 MOL      0.060181
     95 H39         1.8270    4.5010    1.1310 hc        1 MOL      0.095196
     96 H40         0.9560    6.0010    1.5680 hc        1 MOL      0.095196
     97 H41         1.5480    7.8870   -0.6150 ha        1 MOL      0.111110
     98 H42         3.8900    4.7430    1.0590 ha        1 MOL      0.111110
     99 H43         3.6390    8.8560   -1.5040 ha        1 MOL      0.152732
    100 H44         6.0380    5.9080    0.3350 ha        1 MOL      0.152732
    101 H45         6.8680    7.6300   -0.8580 ho        1 MOL      0.421025
    102 N10        -1.1670    3.7100    0.6530 n         1 MOL     -0.341448
    103 C34        -2.3470    2.9710    1.1910 c3        1 MOL      0.035244
    104 C35        -3.3400    2.5080    0.1060 c         1 MOL      0.407341
    105 O15        -3.9970    1.4510    0.1650 o         1 MOL     -0.571690
    106 C36        -3.0310    3.7630    2.3200 c3        1 MOL      0.083933
    107 C37        -2.1450    4.3660    3.4040 c3        1 MOL      0.000140
    108 C38        -4.2310    2.9170    2.9660 c3        1 MOL     -0.195088
    109 C39        -1.6060    3.4060    4.4900 c3        1 MOL     -0.297053
    110 H46        -0.3090    3.2080    0.8040 hn        1 MOL      0.247503
    111 H47        -1.8700    2.1210    1.6650 h1        1 MOL      0.111013
    112 H48        -3.5310    4.5620    1.7720 hc        1 MOL      0.001252
    113 H49        -2.6570    5.2100    3.8500 hc        1 MOL      0.013907
    114 H50        -1.2880    4.7290    2.8280 hc        1 MOL      0.013907
    115 H51        -3.8890    2.0020    3.4330 hc        1 MOL      0.053789
    116 H52        -4.8430    3.5350    3.6180 hc        1 MOL      0.053789
    117 H53        -4.9600    2.7950    2.1700 hc        1 MOL      0.053789
    118 H54        -2.5020    2.9700    4.9400 hc        1 MOL      0.084658
    119 H55        -0.9400    2.6630    4.0440 hc        1 MOL      0.084658
    120 H56        -1.1570    3.9180    5.3360 hc        1 MOL      0.084658
    121 N11        -3.4000    3.1980   -1.0240 n         1 MOL     -0.364631
    122 C40        -4.2170    2.7750   -2.2440 c3        1 MOL     -0.076404
    123 C41        -5.7230    2.8230   -2.1080 c         1 MOL      0.152382
    124 O16        -6.3920    2.2910   -2.9700 o         1 MOL     -0.404095
    125 C42        -3.8390    3.6580   -3.4190 c3        1 MOL      0.263705
    126 O17        -2.4130    3.7130   -3.5500 oh        1 MOL     -0.635002
    127 H57        -3.0140    4.1290   -1.1070 hn        1 MOL      0.331981
    128 H58        -3.9460    1.7570   -2.5200 h1        1 MOL      0.116273
    129 H59        -4.1780    4.6740   -3.2160 h1        1 MOL      0.035578
    130 H60        -4.2280    3.3420   -4.3930 h1        1 MOL      0.035578
    131 H61        -2.0150    2.8670   -3.3400 ho        1 MOL      0.368234
    132 N12        -6.2540    3.4680   -1.0490 n         1 MOL     -0.103697
    133 C43        -7.6290    3.4750   -0.7540 c3        1 MOL      0.092637
    134 C44        -8.2040    2.0440   -0.6280 c         1 MOL      0.528185
    135 O18        -9.3940    1.8560   -0.8490 o         1 MOL     -0.539933
    136 C45        -8.3460    4.4140   -1.7520 c3        1 MOL     -0.247230
    137 H62        -5.6720    4.1530   -0.5740 hn        1 MOL      0.219171
    138 H63        -7.7870    3.9530    0.2120 h1        1 MOL      0.056800
    139 H64        -9.3060    4.7520   -1.3790 hc        1 MOL      0.072795
    140 H65        -7.8050    5.3600   -1.7190 hc        1 MOL      0.072795
    141 H66        -8.4800    3.9460   -2.7180 hc        1 MOL      0.072795
    142 N13        -7.3590    1.0410   -0.4240 n         1 MOL     -0.579907
    143 C46        -7.6050   -0.4030   -0.6820 c3        1 MOL      0.453912
    144 C47        -6.9760   -1.2140    0.4720 c         1 MOL      0.423152
    145 O19        -6.0550   -0.6720    1.1370 o         1 MOL     -0.409771
    146 C48        -6.9190   -0.7550   -2.0090 c3        1 MOL     -0.198804
    147 H67        -6.3750    1.2680   -0.4670 hn        1 MOL      0.207049
    148 H68        -8.6610   -0.5860   -0.8440 h1        1 MOL     -0.031626
    149 H69        -5.9050   -0.3460   -1.9680 hc        1 MOL      0.060420
    150 H70        -6.9540   -1.8000   -2.2990 hc        1 MOL      0.060420
    151 H71        -7.3400   -0.2630   -2.8850 hc        1 MOL      0.060420
    152 N14        -7.5160   -2.4540    0.6960 n         1 MOL     -0.653557
    153 C49        -7.1500   -3.2440    1.8530 c3        1 MOL      0.024722
    154 C50        -7.2950   -2.6260    3.2780 c         1 MOL      0.429275
    155 O20        -6.7480   -3.2070    4.1740 o         1 MOL     -0.489099
    156 C51        -5.7660   -3.8530    1.6230 c3        1 MOL      0.432847
    157 C52        -5.6090   -4.7830    0.4260 c3        1 MOL     -0.126182
    158 C53        -4.2650   -5.6570    0.2290 c         1 MOL      0.680053
    159 O21        -4.1320   -6.1280   -0.9170 o         1 MOL     -0.722737
    160 O22        -3.4310   -5.8750    1.1500 o         1 MOL     -0.722737
    161 H72        -8.2390   -2.7870    0.0830 hn        1 MOL      0.337250
    162 H73        -7.7570   -4.1520    1.8510 h1        1 MOL      0.062372
    163 H74        -5.4700   -4.4960    2.4550 hc        1 MOL     -0.138752
    164 H75        -5.0290   -3.0470    1.6510 hc        1 MOL     -0.138752
    165 H76        -5.6650   -4.1220   -0.4460 hc        1 MOL     -0.011247
    166 H77        -6.5080   -5.3910    0.4470 hc        1 MOL     -0.011247
    167 N15        -8.1830   -1.6380    3.3850 n         1 MOL     -0.334831
    168 C54        -8.3830   -0.8070    4.5660 c3        1 MOL      0.020096
    169 H78        -7.7120   -1.1370    5.3590 h1        1 MOL      0.045314
    170 H79        -8.1690    0.2330    4.3190 h1        1 MOL      0.045314
    171 H80        -9.4150   -0.8960    4.9030 h1        1 MOL      0.045314
    172 H81        -8.6260   -1.3220    2.5250 hn        1 MOL      0.250290
    173 Ca1        -1.1640   -4.9700    0.7650 Ca        1 MOL      1.683303
    174 O23        -0.7160   -5.3040   -1.8190 oh        1 MOL     -0.857014
    175 H82        -1.1680   -4.9900   -2.6040 ho        1 MOL      0.429481
    176 H83         0.1030   -5.6610   -2.1480 ho        1 MOL      0.429481
    177 O24         0.3320   -7.1050    0.3520 oh        1 MOL     -0.857014
    178 H84         0.9530   -7.3740    1.0360 ho        1 MOL      0.429481
    179 H85         0.2410   -7.8800   -0.2020 ho        1 MOL      0.429481
    180 O25        -1.3120   -5.9710    3.2760 oh        1 MOL     -0.857014
    181 H86        -1.2280   -6.6970    3.8920 ho        1 MOL      0.429481
    182 H87        -1.8660   -5.3310    3.7280 ho        1 MOL      0.429481
    183 O26        -2.1410   -3.1420    2.3750 oh        1 MOL     -0.857014
    184 H88        -2.4350   -2.2610    2.1730 ho        1 MOL      0.429481
    185 H89        -2.2730   -3.2330    3.3210 ho        1 MOL      0.429481
@<TRIPOS>BOND
     1    1    2 1   
     2    1    4 1   
     3    1    5 1   
     4    1    6 1   
     5    2    3 2   
     6    2    7 1   
     7    7    8 1   
     8    7   15 1   
     9    8    9 1   
    10    8   11 1   
    11    8   16 1   
    12    9   10 2   
    13    9   19 1   
    14   11   12 1   
    15   11   17 1   
    16   11   18 1   
    17   12   13 1   
    18   12   14 1   
    19   19   20 1   
    20   19   28 1   
    21   20   21 1   
    22   20   23 1   
    23   20   29 1   
    24   21   22 2   
    25   21   41 1   
    26   23   24 1   
    27   23   30 1   
    28   23   31 1   
    29   24   25 1   
    30   24   32 1   
    31   24   33 1   
    32   25   26 1   
    33   25   34 1   
    34   25   35 1   
    35   26   27 1   
    36   26   36 1   
    37   26   37 1   
    38   27   38 1   
    39   27   39 1   
    40   27   40 1   
    41   41   42 1   
    42   41   49 1   
    43   42   43 1   
    44   42   45 1   
    45   42   50 1   
    46   43   44 2   
    47   43   53 1   
    48   45   46 1   
    49   45   51 1   
    50   45   52 1   
    51   46   47 1   
    52   46   48 1   
    53   53   54 1   
    54   53   57 1   
    55   54   55 1   
    56   54   58 1   
    57   54   59 1   
    58   55   56 2   
    59   55   60 1   
    60   60   61 1   
    61   60   68 1   
    62   61   62 1   
    63   61   64 1   
    64   61   69 1   
    65   62   63 2   
    66   62   74 1   
    67   64   65 1   
    68   64   70 1   
    69   64   71 1   
    70   65   66 1   
    71   65   67 2   
    72   66   72 1   
    73   66   73 1   
    74   74   75 1   
    75   74   78 1   
    76   75   76 1   
    77   75   79 1   
    78   75   80 1   
    79   76   77 2   
    80   76   81 1   
    81   81   82 1   
    82   81   93 1   
    83   82   83 1   
    84   82   85 1   
    85   82   94 1   
    86   83   84 2   
    87   83  102 1   
    88   85   86 1   
    89   85   95 1   
    90   85   96 1   
    91   86   87 ar  
    92   86   88 ar  
    93   87   89 ar  
    94   87   97 1   
    95   88   90 ar  
    96   88   98 1   
    97   89   91 ar  
    98   89   99 1   
    99   90   91 ar  
   100   90  100 1   
   101   91   92 1   
   102   92  101 1   
   103  102  103 1   
   104  102  110 1   
   105  103  104 1   
   106  103  106 1   
   107  103  111 1   
   108  104  105 2   
   109  104  121 1   
   110  106  107 1   
   111  106  108 1   
   112  106  112 1   
   113  107  109 1   
   114  107  113 1   
   115  107  114 1   
   116  108  115 1   
   117  108  116 1   
   118  108  117 1   
   119  109  118 1   
   120  109  119 1   
   121  109  120 1   
   122  121  122 1   
   123  121  127 1   
   124  122  123 1   
   125  122  125 1   
   126  122  128 1   
   127  123  124 2   
   128  123  132 1   
   129  125  126 1   
   130  125  129 1   
   131  125  130 1   
   132  126  131 1   
   133  132  133 1   
   134  132  137 1   
   135  133  134 1   
   136  133  136 1   
   137  133  138 1   
   138  134  135 2   
   139  134  142 1   
   140  136  139 1   
   141  136  140 1   
   142  136  141 1   
   143  142  143 1   
   144  142  147 1   
   145  143  144 1   
   146  143  146 1   
   147  143  148 1   
   148  144  145 2   
   149  144  152 1   
   150  146  149 1   
   151  146  150 1   
   152  146  151 1   
   153  152  153 1   
   154  152  161 1   
   155  153  154 1   
   156  153  156 1   
   157  153  162 1   
   158  154  155 2   
   159  154  167 1   
   160  156  157 1   
   161  156  163 1   
   162  156  164 1   
   163  157  158 1   
   164  157  165 1   
   165  157  166 1   
   166  158  159 1   
   167  158  160 1   
   168  167  168 1   
   169  167  172 1   
   170  168  169 1   
   171  168  170 1   
   172  168  171 1   
   173  174  175 1   
   174  174  176 1   
   175  177  178 1   
   176  177  179 1   
   177  180  181 1   
   178  180  182 1   
   179  183  184 1   
   180  183  185 1   
@<TRIPOS>SUBSTRUCTURE
     1 MOL         1 TEMP              0 ****  ****    0 ROOT
