@<TRIPOS>MOLECULE
MOL
  189   185     1     0     0
SMALL
resp


@<TRIPOS>ATOM
      1 C1          4.4050    3.9980   -3.8260 c3        1 MOL     -0.422301
      2 C2          5.0920    3.2240   -2.6500 c         1 MOL      0.773353
      3 O1          4.4550    2.8450   -1.6870 o         1 MOL     -0.621146
      4 H1          3.8390    4.8390   -3.4250 hc        1 MOL      0.105317
      5 H2          5.1670    4.3690   -4.5120 hc        1 MOL      0.105317
      6 H3          3.7310    3.3280   -4.3590 hc        1 MOL      0.105317
      7 N1          6.3570    2.8110   -2.8720 n         1 MOL     -0.551655
      8 C3          7.1310    1.8250   -2.0980 c3        1 MOL      0.238438
      9 C4          6.2890    0.6290   -1.7140 c         1 MOL      0.158488
     10 O2          5.8370    0.4590   -0.5550 o         1 MOL     -0.538721
     11 C5          7.9420    2.4350   -0.9370 c3        1 MOL     -0.113863
     12 C6          7.3480    3.6920   -0.3120 c         1 MOL      0.615657
     13 O3          6.2900    3.6030    0.3950 o         1 MOL     -0.697553
     14 O4          7.8130    4.8360   -0.6560 o         1 MOL     -0.697553
     15 H4          6.8110    3.1220   -3.7140 hn        1 MOL      0.292763
     16 H5          7.9030    1.4510   -2.7640 h1        1 MOL      0.055885
     17 H6          8.8960    2.7630   -1.3350 hc        1 MOL      0.032911
     18 H7          8.0710    1.6170   -0.2190 hc        1 MOL      0.032911
     19 N2          5.9390   -0.1310   -2.7490 n         1 MOL     -0.212913
     20 C7          5.1480   -1.3710   -2.8420 c3        1 MOL      0.200201
     21 C8          5.7270   -2.6030   -2.1410 c         1 MOL      0.188403
     22 O5          5.8840   -3.6580   -2.7200 o         1 MOL     -0.499318
     23 C9          3.5790   -1.1080   -2.5800 c3        1 MOL     -0.047156
     24 C10         2.7600   -2.4030   -2.7770 c3        1 MOL     -0.177833
     25 C11         3.1860   -0.0020   -3.5360 c3        1 MOL     -0.270855
     26 C12         3.0180   -3.1530   -4.1350 c3        1 MOL     -0.144440
     27 H8          6.3660    0.1700   -3.6170 hn        1 MOL      0.197288
     28 H9          5.2120   -1.6620   -3.8890 h1        1 MOL      0.056076
     29 H10         3.5010   -0.7360   -1.5590 hc        1 MOL      0.075394
     30 H11         1.7110   -2.1200   -2.6430 hc        1 MOL      0.118015
     31 H12         2.8710   -3.1470   -1.9960 hc        1 MOL      0.118015
     32 H13         3.6140    0.9560   -3.2500 hc        1 MOL      0.066458
     33 H14         3.4640   -0.2500   -4.5600 hc        1 MOL      0.066458
     34 H15         2.0940    0.0210   -3.6040 hc        1 MOL      0.066458
     35 H16         3.9570   -3.6920   -4.2890 hc        1 MOL      0.033529
     36 H17         2.2300   -3.9090   -4.1740 hc        1 MOL      0.033529
     37 H18         3.0090   -2.3870   -4.9090 hc        1 MOL      0.033529
     38 N3          6.1760   -2.4690   -0.8690 n         1 MOL     -0.049645
     39 C13         7.1810   -3.2930   -0.1380 c3        1 MOL      0.118808
     40 C14         6.6790   -4.5650    0.5580 c         1 MOL      0.474728
     41 O6          7.3770   -5.5620    0.6180 o         1 MOL     -0.574166
     42 C15         8.1920   -2.4390    0.5790 c3        1 MOL     -0.041705
     43 C16         8.9940   -1.3970   -0.2810 c         1 MOL      0.625928
     44 O7          9.6000   -0.5620    0.4590 o         1 MOL     -0.699342
     45 O8          9.0560   -1.4810   -1.5730 o         1 MOL     -0.699342
     46 H19         5.7960   -1.6510   -0.4050 hn        1 MOL      0.249116
     47 H20         7.7870   -3.7070   -0.9550 h1        1 MOL      0.023976
     48 H21         8.9250   -3.1210    1.0060 hc        1 MOL      0.000427
     49 H22         7.6950   -1.9240    1.3960 hc        1 MOL      0.000427
     50 N4          5.4860   -4.6560    1.1280 n         1 MOL     -0.494869
     51 C17         4.5260   -3.6310    1.5870 c3        1 MOL      0.139106
     52 C18         4.8120   -3.0290    2.9570 c         1 MOL      0.550388
     53 O9          5.8490   -3.2970    3.5290 o         1 MOL     -0.556798
     54 H23         5.2990   -5.5910    1.4800 hn        1 MOL      0.296383
     55 H24         3.5470   -4.1050    1.4920 h1        1 MOL     -0.039114
     56 H25         4.4570   -2.8050    0.8770 h1        1 MOL     -0.039114
     57 N5          3.9980   -2.1750    3.5050 n         1 MOL     -0.498321
     58 C19         2.5630   -1.9300    3.1490 c3        1 MOL      0.213453
     59 C20         2.5430   -1.0890    1.8460 c         1 MOL      0.668882
     60 O10         3.5580   -0.5360    1.4230 o         1 MOL     -0.614357
     61 C21         2.0800   -1.3740    4.4860 c3        1 MOL     -0.512187
     62 C22         2.3940   -2.1480    5.7690 c         1 MOL      0.813420
     63 O11         3.4240   -1.8880    6.4030 o         1 MOL     -0.723909
     64 O12         1.5590   -3.0050    6.2150 o         1 MOL     -0.723909
     65 H26         4.3040   -1.8910    4.4270 hn        1 MOL      0.297658
     66 H27         2.0480   -2.8770    3.0020 h1        1 MOL      0.014581
     67 H28         0.9920   -1.4050    4.5220 hc        1 MOL      0.113627
     68 H29         2.5330   -0.3950    4.5780 hc        1 MOL      0.113627
     69 N6          1.4280   -0.9950    1.1450 n         1 MOL     -0.490517
     70 C23         0.0340   -1.5210    1.3980 c3        1 MOL     -0.053380
     71 C24        -0.6290   -2.4060    0.3950 c         1 MOL      0.651544
     72 O13        -0.1060   -2.5550   -0.7160 o         1 MOL     -0.542336
     73 H30         1.3360   -0.3240    0.3860 hn        1 MOL      0.260166
     74 H31        -0.5860   -0.6490    1.6150 h1        1 MOL      0.072018
     75 H32        -0.0130   -2.1110    2.3120 h1        1 MOL      0.072018
     76 N7         -1.7840   -2.9710    0.7610 n         1 MOL     -0.568381
     77 C25        -2.3980   -4.1030   -0.0020 c3        1 MOL      0.035535
     78 C26        -2.9550   -3.8610   -1.3780 c         1 MOL      0.321468
     79 O14        -3.1020   -4.8110   -2.1340 o         1 MOL     -0.514852
     80 C27        -3.2690   -4.9080    0.9260 c3        1 MOL      0.017265
     81 C28        -4.5560   -4.1850    1.4400 c3        1 MOL     -0.288718
     82 C29        -5.5330   -3.6830    0.3450 c         1 MOL      0.540825
     83 N8         -6.1870   -4.5890   -0.3940 n         1 MOL     -0.728570
     84 O15        -5.6620   -2.5070    0.1340 o         1 MOL     -0.457202
     85 H33        -2.0500   -2.9820    1.7340 hn        1 MOL      0.327567
     86 H34        -1.5240   -4.7240   -0.2010 h1        1 MOL      0.140062
     87 H35        -2.7080   -5.1300    1.8320 hc        1 MOL      0.023538
     88 H36        -3.5400   -5.8100    0.3780 hc        1 MOL      0.023538
     89 H37        -4.2690   -3.2750    1.9710 hc        1 MOL      0.120303
     90 H38        -5.1290   -4.8360    2.1110 hc        1 MOL      0.120303
     91 H39        -6.3340   -5.5570   -0.1240 hn        1 MOL      0.361731
     92 H40        -6.7130   -4.1880   -1.1540 hn        1 MOL      0.361731
     93 N9         -3.1970   -2.6040   -1.7580 n         1 MOL     -0.074016
     94 C30        -3.6920   -2.2230   -3.1290 c3        1 MOL     -0.093066
     95 C31        -5.0480   -1.5380   -3.3320 c         1 MOL      0.323901
     96 O16        -5.4040   -1.4070   -4.4990 o         1 MOL     -0.539974
     97 C32        -2.5740   -1.4120   -3.8330 c3        1 MOL      0.213598
     98 C33        -1.3430   -2.2390   -4.1280 c3        1 MOL     -0.205149
     99 C34        -2.1500   -0.1670   -3.0130 c3        1 MOL     -0.205149
    100 H41        -3.1000   -1.8810   -1.0530 hn        1 MOL      0.120134
    101 H42        -3.7750   -3.0900   -3.7870 h1        1 MOL      0.120298
    102 H43        -2.9610   -1.0730   -4.7890 hc        1 MOL     -0.012371
    103 H44        -0.9310   -2.3770   -3.1300 hc        1 MOL      0.044816
    104 H45        -1.5760   -3.1730   -4.6500 hc        1 MOL      0.044816
    105 H46        -0.5950   -1.7260   -4.7390 hc        1 MOL      0.044816
    106 H47        -1.3750    0.3760   -3.5530 hc        1 MOL      0.044816
    107 H48        -3.0310    0.4410   -2.7970 hc        1 MOL      0.044816
    108 H49        -1.8430   -0.5080   -2.0220 hc        1 MOL      0.044816
    109 N10        -5.8600   -1.1480   -2.3200 n         1 MOL     -0.065163
    110 C35        -7.1730   -0.5340   -2.4940 c3        1 MOL     -0.049527
    111 C36        -7.2720    0.8120   -1.6850 c         1 MOL      0.425829
    112 O17        -8.2590    1.4900   -1.7650 o         1 MOL     -0.544274
    113 C37        -8.2980   -1.4710   -2.0560 c3        1 MOL     -0.019651
    114 C38        -8.3440   -2.8080   -2.7150 c         1 MOL      0.561789
    115 N11        -8.2920   -2.9780   -3.9960 n         1 MOL     -0.723889
    116 O18        -8.3940   -3.7960   -1.9380 o         1 MOL     -0.590130
    117 H50        -5.5830   -1.5480   -1.4420 hn        1 MOL      0.184497
    118 H51        -7.2860   -0.2770   -3.5540 h1        1 MOL      0.070872
    119 H52        -9.2470   -0.9580   -2.1600 hc        1 MOL      0.021917
    120 H53        -8.1820   -1.5900   -0.9810 hc        1 MOL      0.021917
    121 H54        -8.1120   -2.2360   -4.6540 hn        1 MOL      0.363183
    122 H55        -8.2490   -3.9400   -4.3080 hn        1 MOL      0.363183
    123 N12        -6.3330    1.1830   -0.8270 n         1 MOL     -0.253478
    124 C39        -6.3590    2.4280   -0.0490 c3        1 MOL      0.394195
    125 C40        -4.9710    2.8730    0.3300 c         1 MOL      0.116410
    126 O19        -4.1000    2.0310    0.2300 o         1 MOL     -0.289027
    127 C41        -7.2640    2.3020    1.2470 c3        1 MOL      0.005620
    128 C42        -7.3720    0.8950    1.8060 ca        1 MOL      0.099818
    129 C43        -8.5790    0.2230    1.7880 ca        1 MOL     -0.246690
    130 C44        -6.2030    0.3590    2.3420 ca        1 MOL     -0.246690
    131 C45        -8.6480   -1.0890    2.2520 ca        1 MOL     -0.116023
    132 C46        -6.2640   -0.8920    2.8690 ca        1 MOL     -0.116023
    133 C47        -7.4840   -1.6330    2.8460 ca        1 MOL      0.231811
    134 O20        -7.4900   -2.8440    3.3930 oh        1 MOL     -0.473547
    135 H56        -5.3870    0.8320   -0.9090 hn        1 MOL      0.076501
    136 H57        -6.8490    3.2070   -0.6260 h1        1 MOL     -0.029525
    137 H58        -8.2330    2.7060    0.9270 hc        1 MOL     -0.005850
    138 H59        -6.9420    3.0240    2.0000 hc        1 MOL     -0.005850
    139 H60        -9.4220    0.6050    1.2390 ha        1 MOL      0.137023
    140 H61        -5.2460    0.8530    2.2930 ha        1 MOL      0.137023
    141 H62        -9.5580   -1.6680    2.2480 ha        1 MOL      0.098415
    142 H63        -5.3350   -1.2640    3.2710 ha        1 MOL      0.098415
    143 H64        -8.2670   -3.3880    3.2130 ho        1 MOL      0.349328
    144 N13        -4.7010    4.0320    0.9380 n         1 MOL     -0.382904
    145 C48        -3.5410    4.5870    1.5950 c3        1 MOL      0.014023
    146 C49        -2.3390    4.8600    0.6800 c         1 MOL      0.303796
    147 O21        -1.6350    5.9120    0.8220 o         1 MOL     -0.525512
    148 C50        -3.2010    3.9060    2.9270 c3        1 MOL     -0.104239
    149 C51        -4.2940    3.8900    3.9470 c3        1 MOL      0.066080
    150 C52        -3.7520    3.4240    5.3190 c         1 MOL      0.538750
    151 O22        -3.0570    4.2110    5.9750 o         1 MOL     -0.674111
    152 O23        -4.1170    2.2560    5.6750 o         1 MOL     -0.674111
    153 H65        -5.4710    4.6750    0.8430 hn        1 MOL      0.268779
    154 H66        -3.7810    5.6040    1.8790 h1        1 MOL      0.075236
    155 H67        -2.2880    4.3900    3.2660 hc        1 MOL      0.076046
    156 H68        -2.9060    2.8660    2.7390 hc        1 MOL      0.076046
    157 H69        -5.2440    3.4230    3.6840 hc        1 MOL     -0.031943
    158 H70        -4.6780    4.9060    4.0310 hc        1 MOL     -0.031943
    159 N14        -2.0080    4.0000   -0.2650 n         1 MOL      0.004170
    160 C53        -0.8210    4.1810   -1.1020 c3        1 MOL     -0.162833
    161 C54        -0.9900    5.1510   -2.2640 c         1 MOL      0.435082
    162 O24        -0.0450    5.8070   -2.7010 o         1 MOL     -0.516516
    163 C55        -0.4210    2.8360   -1.7170 c3        1 MOL     -0.006687
    164 C56        -0.1880    1.5930   -0.8770 c3        1 MOL      0.165088
    165 C57         0.7670    1.8510    0.2640 c         1 MOL      0.605450
    166 O25         0.3150    2.2210    1.3820 o         1 MOL     -0.668980
    167 O26         1.9870    1.5690    0.0900 o         1 MOL     -0.668980
    168 H71        -2.4680    3.0940   -0.3070 hn        1 MOL      0.114942
    169 H72        -0.0090    4.6060   -0.5220 h1        1 MOL      0.148139
    170 H73         0.5340    2.9690   -2.2280 hc        1 MOL      0.001732
    171 H74        -1.1620    2.5220   -2.4560 hc        1 MOL      0.001732
    172 H75         0.1800    0.7270   -1.4080 hc        1 MOL     -0.039238
    173 H76        -1.1900    1.3890   -0.4720 hc        1 MOL     -0.039238
    174 N15        -2.2260    5.3210   -2.7460 n         1 MOL     -0.213914
    175 C58        -2.6540    6.2280   -3.8090 c3        1 MOL     -0.159122
    176 H77        -3.2740    7.0170   -3.3850 h1        1 MOL      0.077322
    177 H78        -1.7780    6.6710   -4.2840 h1        1 MOL      0.077322
    178 H79        -3.2290    5.6740   -4.5500 h1        1 MOL      0.077322
    179 H80        -3.0300    4.9590   -2.2440 hn        1 MOL      0.184276
    180 Ca1         4.3100    2.0880    0.9790 Ca        1 MOL      1.748406
    181 O27         3.4150    4.5460    0.8890 oh        1 MOL     -0.899100
    182 H81         3.8720    5.3070    0.5200 ho        1 MOL      0.435084
    183 H82         2.5760    4.8910    1.1900 ho        1 MOL      0.435084
    184 O28         5.6500    1.3990    3.1520 oh        1 MOL     -0.899100
    185 H83         6.4240    0.9310    2.8510 ho        1 MOL      0.435084
    186 H84         5.3540    0.9140    3.9220 ho        1 MOL      0.435084
    187 O29         2.5280    2.0910    2.9500 oh        1 MOL     -0.899100
    188 H85         1.7930    2.3330    2.3780 ho        1 MOL      0.435084
    189 H86         2.1300    2.0170    3.8170 ho        1 MOL      0.435084
@<TRIPOS>BOND
     1    1    2 1   
     2    1    4 1   
     3    1    5 1   
     4    1    6 1   
     5    2    3 2   
     6    2    7 1   
     7    7    8 1   
     8    7   15 1   
     9    8    9 1   
    10    8   11 1   
    11    8   16 1   
    12    9   10 2   
    13    9   19 1   
    14   11   12 1   
    15   11   17 1   
    16   11   18 1   
    17   12   13 1   
    18   12   14 1   
    19   19   20 1   
    20   19   27 1   
    21   20   21 1   
    22   20   23 1   
    23   20   28 1   
    24   21   22 2   
    25   21   38 1   
    26   23   24 1   
    27   23   25 1   
    28   23   29 1   
    29   24   26 1   
    30   24   30 1   
    31   24   31 1   
    32   25   32 1   
    33   25   33 1   
    34   25   34 1   
    35   26   35 1   
    36   26   36 1   
    37   26   37 1   
    38   38   39 1   
    39   38   46 1   
    40   39   40 1   
    41   39   42 1   
    42   39   47 1   
    43   40   41 2   
    44   40   50 1   
    45   42   43 1   
    46   42   48 1   
    47   42   49 1   
    48   43   44 1   
    49   43   45 1   
    50   50   51 1   
    51   50   54 1   
    52   51   52 1   
    53   51   55 1   
    54   51   56 1   
    55   52   53 2   
    56   52   57 1   
    57   57   58 1   
    58   57   65 1   
    59   58   59 1   
    60   58   61 1   
    61   58   66 1   
    62   59   60 2   
    63   59   69 1   
    64   61   62 1   
    65   61   67 1   
    66   61   68 1   
    67   62   63 1   
    68   62   64 1   
    69   69   70 1   
    70   69   73 1   
    71   70   71 1   
    72   70   74 1   
    73   70   75 1   
    74   71   72 2   
    75   71   76 1   
    76   76   77 1   
    77   76   85 1   
    78   77   78 1   
    79   77   80 1   
    80   77   86 1   
    81   78   79 2   
    82   78   93 1   
    83   80   81 1   
    84   80   87 1   
    85   80   88 1   
    86   81   82 1   
    87   81   89 1   
    88   81   90 1   
    89   82   83 1   
    90   82   84 2   
    91   83   91 1   
    92   83   92 1   
    93   93   94 1   
    94   93  100 1   
    95   94   95 1   
    96   94   97 1   
    97   94  101 1   
    98   95   96 2   
    99   95  109 1   
   100   97   98 1   
   101   97   99 1   
   102   97  102 1   
   103   98  103 1   
   104   98  104 1   
   105   98  105 1   
   106   99  106 1   
   107   99  107 1   
   108   99  108 1   
   109  109  110 1   
   110  109  117 1   
   111  110  111 1   
   112  110  113 1   
   113  110  118 1   
   114  111  112 2   
   115  111  123 1   
   116  113  114 1   
   117  113  119 1   
   118  113  120 1   
   119  114  115 1   
   120  114  116 2   
   121  115  121 1   
   122  115  122 1   
   123  123  124 1   
   124  123  135 1   
   125  124  125 1   
   126  124  127 1   
   127  124  136 1   
   128  125  126 2   
   129  125  144 1   
   130  127  128 1   
   131  127  137 1   
   132  127  138 1   
   133  128  129 ar  
   134  128  130 ar  
   135  129  131 ar  
   136  129  139 1   
   137  130  132 ar  
   138  130  140 1   
   139  131  133 ar  
   140  131  141 1   
   141  132  133 ar  
   142  132  142 1   
   143  133  134 1   
   144  134  143 1   
   145  144  145 1   
   146  144  153 1   
   147  145  146 1   
   148  145  148 1   
   149  145  154 1   
   150  146  147 2   
   151  146  159 1   
   152  148  149 1   
   153  148  155 1   
   154  148  156 1   
   155  149  150 1   
   156  149  157 1   
   157  149  158 1   
   158  150  151 1   
   159  150  152 1   
   160  159  160 1   
   161  159  168 1   
   162  160  161 1   
   163  160  163 1   
   164  160  169 1   
   165  161  162 2   
   166  161  174 1   
   167  163  164 1   
   168  163  170 1   
   169  163  171 1   
   170  164  165 1   
   171  164  172 1   
   172  164  173 1   
   173  165  166 1   
   174  165  167 1   
   175  174  175 1   
   176  174  179 1   
   177  175  176 1   
   178  175  177 1   
   179  175  178 1   
   180  181  182 1   
   181  181  183 1   
   182  184  185 1   
   183  184  186 1   
   184  187  188 1   
   185  187  189 1   
@<TRIPOS>SUBSTRUCTURE
     1 MOL         1 TEMP              0 ****  ****    0 ROOT
