@<TRIPOS>MOLECULE
MOL
  190   183     1     0     0
SMALL
resp


@<TRIPOS>ATOM
      1 C1          8.2120    0.0320    5.5650 c3        1 MOL     -0.323078
      2 C2          8.0690    0.2870    4.0600 c         1 MOL      0.676075
      3 O1          7.3220    1.1340    3.6290 o         1 MOL     -0.584980
      4 H1          8.8840   -0.8100    5.7270 hc        1 MOL      0.085867
      5 H2          8.6210    0.9210    6.0470 hc        1 MOL      0.085867
      6 H3          7.2350   -0.1950    5.9900 hc        1 MOL      0.085867
      7 N1          8.9150   -0.3420    3.1660 n         1 MOL     -0.453987
      8 C3         10.0560   -1.1230    3.4710 c3        1 MOL      0.033074
      9 C4         10.0440   -2.3110    2.4700 c         1 MOL      0.450103
     10 O2          9.1770   -3.1970    2.6520 o         1 MOL     -0.525611
     11 C5         11.3830   -0.3360    3.3980 c3        1 MOL     -0.208386
     12 C6         11.6300    0.5390    2.2320 c         1 MOL      0.742304
     13 O3         10.7470    0.6130    1.3720 o         1 MOL     -0.726305
     14 O4         12.8140    0.9030    2.1300 o         1 MOL     -0.726305
     15 H4          8.8820    0.0980    2.2570 hn        1 MOL      0.384452
     16 H5          9.9780   -1.5780    4.4580 h1        1 MOL      0.085175
     17 H6         12.1970   -1.0670    3.4700 hc        1 MOL      0.045018
     18 H7         11.4480    0.2730    4.2980 hc        1 MOL      0.045018
     19 N2         10.8410   -2.3070    1.3940 n         1 MOL     -0.494129
     20 C7         10.6610   -2.9930    0.1320 c3        1 MOL      0.326145
     21 C8          9.1820   -2.9660   -0.4380 c         1 MOL      0.175864
     22 O5          8.7960   -3.7680   -1.3590 o         1 MOL     -0.513481
     23 C9         11.1170   -4.4770    0.3370 c3        1 MOL     -0.258688
     24 H8         11.3370   -1.4340    1.2950 hn        1 MOL      0.316047
     25 H9         11.3830   -2.5680   -0.5600 h1        1 MOL      0.023363
     26 H10        10.4230   -5.1020    0.9130 hc        1 MOL      0.072850
     27 H11        11.1080   -4.9200   -0.6580 hc        1 MOL      0.072850
     28 H12        12.1630   -4.4970    0.6400 hc        1 MOL      0.072850
     29 N3          8.3240   -2.0440    0.0050 n         1 MOL      0.230795
     30 C10         6.8870   -1.8900   -0.3110 c3        1 MOL     -0.140932
     31 C11         6.5950   -1.7050   -1.8420 c         1 MOL      0.515803
     32 O6          7.3320   -1.0250   -2.5760 o         1 MOL     -0.512330
     33 C12         6.3060   -0.6940    0.4400 c3        1 MOL     -0.089445
     34 C13         6.9020    0.6720    0.0400 c         1 MOL      0.777537
     35 O7          8.0110    0.9860    0.4610 o         1 MOL     -0.680151
     36 O8          6.1510    1.4890   -0.5110 o         1 MOL     -0.680151
     37 H13         8.7390   -1.3800    0.6330 hn        1 MOL     -0.148148
     38 H14         6.3240   -2.7660    0.0120 h1        1 MOL      0.086595
     39 H15         6.4020   -0.8460    1.5170 hc        1 MOL      0.030996
     40 H16         5.2310   -0.5830    0.2540 hc        1 MOL      0.030996
     41 N4          5.4490   -2.2160   -2.2970 n         1 MOL     -0.352269
     42 C14         4.9640   -2.0810   -3.7080 c3        1 MOL     -0.279411
     43 C15         3.4540   -2.2660   -3.8450 c         1 MOL      0.530794
     44 O9          2.9350   -2.1240   -4.9070 o         1 MOL     -0.511623
     45 H17         4.8330   -2.5980   -1.5980 hn        1 MOL      0.185817
     46 H18         5.4340   -2.8180   -4.3560 h1        1 MOL      0.166520
     47 H19         5.2100   -1.1240   -4.1510 h1        1 MOL      0.166520
     48 N5          2.7650   -2.6140   -2.7790 n         1 MOL     -0.304606
     49 C16         1.3570   -3.0400   -2.8540 c3        1 MOL      0.011081
     50 C17         0.2890   -1.9550   -2.4020 c         1 MOL      0.624980
     51 O10        -0.8750   -2.1040   -2.6480 o         1 MOL     -0.451796
     52 C18         1.0740   -4.3260   -2.0920 c3        1 MOL     -0.407992
     53 C19         1.7500   -5.5960   -2.6730 c         1 MOL      0.741464
     54 N6          2.7530   -6.1650   -2.0040 n         1 MOL     -0.830752
     55 O11         1.4270   -6.0880   -3.7530 o         1 MOL     -0.551730
     56 H20         3.2770   -2.6220   -1.9140 hn        1 MOL      0.269065
     57 H21         1.1040   -3.1370   -3.9070 h1        1 MOL      0.135110
     58 H22         0.0160   -4.5720   -2.0340 hc        1 MOL      0.115392
     59 H23         1.3520   -4.1970   -1.0470 hc        1 MOL      0.115392
     60 H24         3.0330   -5.7150   -1.1480 hn        1 MOL      0.364691
     61 H25         3.0640   -7.0870   -2.2730 hn        1 MOL      0.364691
     62 N7          0.7500   -0.8210   -1.7670 n         1 MOL     -0.558727
     63 C20        -0.0870    0.4300   -1.5360 c3        1 MOL      0.031961
     64 C21        -0.5530    1.0770   -2.8520 c         1 MOL      0.729849
     65 O12        -0.1690    0.5790   -3.9110 o         1 MOL     -0.561399
     66 H26         1.7090   -0.7240   -1.4790 hn        1 MOL      0.261764
     67 H27         0.6240    1.0770   -1.0350 h1        1 MOL      0.055159
     68 H28        -0.9140    0.1050   -0.8920 h1        1 MOL      0.055159
     69 N8         -1.1510    2.2820   -2.8720 n         1 MOL     -0.658877
     70 C22        -1.4740    3.0690   -1.6740 c3        1 MOL      0.029842
     71 C23        -2.7850    2.6600   -1.1180 c         1 MOL      0.725097
     72 O13        -3.8440    2.5550   -1.6890 o         1 MOL     -0.515634
     73 C24        -1.6230    4.5570   -1.8300 c3        1 MOL      0.444702
     74 C25        -0.2700    5.1770   -2.0760 c3        1 MOL     -0.443511
     75 O14        -2.4740    4.8140   -2.9310 oh        1 MOL     -0.624567
     76 H29        -1.3590    2.6830   -3.7760 hn        1 MOL      0.370338
     77 H30        -0.7390    2.8740   -0.8980 h1        1 MOL      0.018974
     78 H31        -2.1200    4.9290   -0.9350 h1        1 MOL      0.002154
     79 H32        -2.9720    5.6200   -2.7340 ho        1 MOL      0.406115
     80 H33        -0.3500    6.2500   -1.8990 hc        1 MOL      0.101557
     81 H34         0.4350    4.7040   -1.3840 hc        1 MOL      0.101557
     82 H35         0.0750    5.0080   -3.0860 hc        1 MOL      0.101557
     83 N9         -2.7390    2.6940    0.2400 n         1 MOL     -0.806236
     84 C26        -3.9450    2.5530    1.1250 c3        1 MOL      0.042454
     85 C27        -4.7500    3.8780    1.1410 c         1 MOL      0.713685
     86 O15        -4.1880    4.8780    1.5560 o         1 MOL     -0.622261
     87 C28        -3.6520    2.0060    2.5250 c3        1 MOL      0.056473
     88 C29        -2.8060    0.7090    2.4990 c3        1 MOL      0.205421
     89 C30        -4.9650    1.7630    3.2600 c3        1 MOL     -0.073419
     90 C31        -2.4580    0.2380    3.9170 c3        1 MOL     -0.315734
     91 H36        -1.9340    2.9680    0.7890 hn        1 MOL      0.334152
     92 H37        -4.5560    1.7490    0.7150 h1        1 MOL      0.113796
     93 H38        -3.0610    2.7320    3.0920 hc        1 MOL     -0.022524
     94 H39        -1.8720    0.9220    1.9670 hc        1 MOL     -0.011084
     95 H40        -3.2970   -0.1070    1.9670 hc        1 MOL     -0.011084
     96 H41        -5.5250    1.0170    2.6980 hc        1 MOL      0.010576
     97 H42        -4.9040    1.4270    4.2950 hc        1 MOL      0.010576
     98 H43        -5.6210    2.6420    3.2490 hc        1 MOL      0.010576
     99 H44        -2.1850    1.0810    4.5490 hc        1 MOL      0.058660
    100 H45        -3.3670   -0.2290    4.2960 hc        1 MOL      0.058660
    101 H46        -1.6560   -0.4920    3.8200 hc        1 MOL      0.058660
    102 N10        -6.0570    3.8340    0.8850 n         1 MOL     -0.604137
    103 C32        -6.7560    3.0710   -0.1420 c3        1 MOL      0.493499
    104 C33        -7.9240    2.1920    0.3870 c         1 MOL      0.412648
    105 O16        -8.2980    2.3110    1.5690 o         1 MOL     -0.515093
    106 C34        -7.1950    4.0650   -1.2310 c3        1 MOL     -0.287887
    107 C35        -7.9760    5.2880   -0.7910 c         1 MOL      0.720221
    108 O17        -8.3180    5.3870    0.4100 o         1 MOL     -0.704884
    109 O18        -8.2970    6.2330   -1.5630 o         1 MOL     -0.704884
    110 H47        -6.5230    4.6590    1.2220 hn        1 MOL      0.311383
    111 H48        -5.9810    2.3700   -0.4640 h1        1 MOL     -0.067086
    112 H49        -7.6900    3.5830   -2.0720 hc        1 MOL      0.029438
    113 H50        -6.2650    4.4560   -1.6480 hc        1 MOL      0.029438
    114 N11        -8.5530    1.3420   -0.4690 n         1 MOL     -0.572161
    115 C36        -9.7000    0.4930   -0.2460 c3        1 MOL      0.528150
    116 C37        -9.4310   -0.8180   -0.9830 c         1 MOL      0.082600
    117 O19        -8.8430   -0.8650   -2.0880 o         1 MOL     -0.428330
    118 C38       -10.9770    1.2280   -0.8100 c3        1 MOL     -0.188219
    119 C39       -12.2840    0.5540   -0.6670 ca        1 MOL      0.132100
    120 C40       -12.7890   -0.2170   -1.7010 ca        1 MOL     -0.180833
    121 C41       -12.9430    0.5470    0.5340 ca        1 MOL     -0.180833
    122 C42       -14.0140   -0.8020   -1.6050 ca        1 MOL     -0.101837
    123 C43       -14.1770   -0.1730    0.6930 ca        1 MOL     -0.101837
    124 C44       -14.7480   -0.7950   -0.4200 ca        1 MOL     -0.125662
    125 H51        -8.0520    1.1540   -1.3200 hn        1 MOL      0.302749
    126 H52        -9.8510    0.2650    0.8050 h1        1 MOL     -0.056540
    127 H53       -10.7530    1.5060   -1.8380 hc        1 MOL      0.074329
    128 H54       -11.0260    2.2160   -0.3460 hc        1 MOL      0.074329
    129 H55       -12.2070   -0.2950   -2.6070 ha        1 MOL      0.124802
    130 H56       -12.4090    0.8830    1.4070 ha        1 MOL      0.124802
    131 H57       -14.4430   -1.4000   -2.3950 ha        1 MOL      0.092985
    132 H58       -14.7200   -0.1670    1.6310 ha        1 MOL      0.092985
    133 H59       -15.7060   -1.2910   -0.3850 ha        1 MOL      0.092598
    134 N12        -9.9170   -1.9730   -0.4050 n         1 MOL      0.117788
    135 C45       -10.4020   -2.2620    0.9810 c3        1 MOL      0.236297
    136 C46        -9.4230   -2.0700    2.1470 c         1 MOL      0.339576
    137 O20        -9.6510   -1.4670    3.2090 o         1 MOL     -0.523577
    138 C47       -10.9300   -3.6280    0.9150 c3        1 MOL     -0.046631
    139 C48       -11.4020   -3.7990   -0.5420 c3        1 MOL      0.000466
    140 C49       -10.3310   -3.0580   -1.3060 c3        1 MOL     -0.195547
    141 H60       -11.2170   -1.5500    1.1280 h1        1 MOL     -0.041285
    142 H61       -10.1530   -4.3490    1.1740 hc        1 MOL      0.002980
    143 H62       -11.7480   -3.7570    1.6230 hc        1 MOL      0.002980
    144 H63       -11.4060   -4.8120   -0.9250 hc        1 MOL      0.012232
    145 H64       -12.4140   -3.4160   -0.6590 hc        1 MOL      0.012232
    146 H65        -9.4810   -3.6880   -1.5680 h1        1 MOL      0.080848
    147 H66       -10.8720   -2.5990   -2.1360 h1        1 MOL      0.080848
    148 N13        -8.2300   -2.5590    1.8260 n         1 MOL     -0.342544
    149 C50        -6.8880   -2.3100    2.4780 c3        1 MOL      0.357751
    150 C51        -6.7910   -3.1800    3.7760 c         1 MOL      0.334095
    151 O21        -6.5600   -4.3760    3.6230 o         1 MOL     -0.561115
    152 C52        -5.7110   -2.5770    1.5290 c3        1 MOL     -0.322386
    153 C53        -5.6950   -1.5260    0.3730 c3        1 MOL      0.084749
    154 C54        -4.9720   -1.9240   -0.8430 c         1 MOL      0.718509
    155 O22        -5.3890   -1.5770   -1.9880 o         1 MOL     -0.659306
    156 O23        -4.0110   -2.6610   -0.7740 o         1 MOL     -0.659306
    157 H67        -8.2200   -3.1510    1.0050 hn        1 MOL      0.256037
    158 H68        -6.7740   -1.2600    2.7760 h1        1 MOL      0.033080
    159 H69        -5.8630   -3.5850    1.1350 hc        1 MOL      0.085259
    160 H70        -4.8090   -2.5690    2.1390 hc        1 MOL      0.085259
    161 H71        -5.1620   -0.6910    0.8380 hc        1 MOL     -0.085444
    162 H72        -6.7170   -1.3020    0.0560 hc        1 MOL     -0.085444
    163 N14        -7.0010   -2.7260    4.9990 n         1 MOL     -0.279394
    164 C55        -7.4760   -1.4270    5.5530 c3        1 MOL     -0.183367
    165 H73        -8.3430   -1.0870    4.9860 h1        1 MOL      0.093011
    166 H74        -7.7550   -1.5580    6.5980 h1        1 MOL      0.093011
    167 H75        -6.6800   -0.6860    5.4780 h1        1 MOL      0.093011
    168 H76        -6.6820   -3.3560    5.7090 hn        1 MOL      0.249656
    169 Ca1        10.1340    2.3900   -0.3220 Ca        1 MOL      1.831480
    170 O24        11.7920    3.4470    1.5190 oh        1 MOL     -0.864484
    171 H77        12.0320    4.2500    1.9760 ho        1 MOL      0.397542
    172 H78        12.3400    2.7690    1.9290 ho        1 MOL      0.397542
    173 O25         7.8480    3.5190   -0.9970 oh        1 MOL     -0.864484
    174 O26         9.0220    2.9830    2.2130 oh        1 MOL     -0.864484
    175 H79         7.1910    2.8570   -0.7790 ho        1 MOL      0.397542
    176 H80         8.3710    2.3630    2.5440 ho        1 MOL      0.397542
    177 H81         7.5750    3.8390   -1.8620 ho        1 MOL      0.397542
    178 H82         9.0690    3.6570    2.8950 ho        1 MOL      0.397542
    179 O27        10.9850    4.8140   -0.8670 oh        1 MOL     -0.864484
    180 H83        10.6140    5.3480   -1.5740 ho        1 MOL      0.397542
    181 H84        11.7040    5.3410   -0.5240 ho        1 MOL      0.397542
    182 O28        10.0500    2.8140   -2.8790 oh        1 MOL     -0.864484
    183 H85        10.9510    2.8010   -3.2120 ho        1 MOL      0.397542
    184 H86         9.5230    2.5200   -3.6240 ho        1 MOL      0.397542
    185 O29         9.8710    0.1320   -1.7240 oh        1 MOL     -0.864484
    186 H87         9.0750   -0.3540   -1.9420 ho        1 MOL      0.397542
    187 H88        10.5800   -0.3650   -2.1460 ho        1 MOL      0.397542
    188 O30        12.5340    1.7130   -1.3530 oh        1 MOL     -0.864484
    189 H89        13.2480    2.2360   -0.9880 ho        1 MOL      0.397542
    190 H90        12.8990    0.8380   -1.4420 ho        1 MOL      0.397542
@<TRIPOS>BOND
     1    1    2 1   
     2    1    4 1   
     3    1    5 1   
     4    1    6 1   
     5    2    3 2   
     6    2    7 1   
     7    7    8 1   
     8    7   15 1   
     9    8    9 1   
    10    8   11 1   
    11    8   16 1   
    12    9   10 2   
    13    9   19 1   
    14   11   12 1   
    15   11   17 1   
    16   11   18 1   
    17   12   13 1   
    18   12   14 1   
    19   19   20 1   
    20   19   24 1   
    21   20   21 1   
    22   20   23 1   
    23   20   25 1   
    24   21   22 2   
    25   21   29 1   
    26   23   26 1   
    27   23   27 1   
    28   23   28 1   
    29   29   30 1   
    30   29   37 1   
    31   30   31 1   
    32   30   33 1   
    33   30   38 1   
    34   31   32 2   
    35   31   41 1   
    36   33   34 1   
    37   33   39 1   
    38   33   40 1   
    39   34   35 1   
    40   34   36 1   
    41   41   42 1   
    42   41   45 1   
    43   42   43 1   
    44   42   46 1   
    45   42   47 1   
    46   43   44 2   
    47   43   48 1   
    48   48   49 1   
    49   48   56 1   
    50   49   50 1   
    51   49   52 1   
    52   49   57 1   
    53   50   51 2   
    54   50   62 1   
    55   52   53 1   
    56   52   58 1   
    57   52   59 1   
    58   53   54 1   
    59   53   55 2   
    60   54   60 1   
    61   54   61 1   
    62   62   63 1   
    63   62   66 1   
    64   63   64 1   
    65   63   67 1   
    66   63   68 1   
    67   64   65 2   
    68   64   69 1   
    69   69   70 1   
    70   69   76 1   
    71   70   71 1   
    72   70   73 1   
    73   70   77 1   
    74   71   72 2   
    75   71   83 1   
    76   73   74 1   
    77   73   75 1   
    78   73   78 1   
    79   74   80 1   
    80   74   81 1   
    81   74   82 1   
    82   75   79 1   
    83   83   84 1   
    84   83   91 1   
    85   84   85 1   
    86   84   87 1   
    87   84   92 1   
    88   85   86 2   
    89   85  102 1   
    90   87   88 1   
    91   87   89 1   
    92   87   93 1   
    93   88   90 1   
    94   88   94 1   
    95   88   95 1   
    96   89   96 1   
    97   89   97 1   
    98   89   98 1   
    99   90   99 1   
   100   90  100 1   
   101   90  101 1   
   102  102  103 1   
   103  102  110 1   
   104  103  104 1   
   105  103  106 1   
   106  103  111 1   
   107  104  105 2   
   108  104  114 1   
   109  106  107 1   
   110  106  112 1   
   111  106  113 1   
   112  107  108 1   
   113  107  109 1   
   114  114  115 1   
   115  114  125 1   
   116  115  116 1   
   117  115  118 1   
   118  115  126 1   
   119  116  117 2   
   120  116  134 1   
   121  118  119 1   
   122  118  127 1   
   123  118  128 1   
   124  119  120 ar  
   125  119  121 ar  
   126  120  122 ar  
   127  120  129 1   
   128  121  123 ar  
   129  121  130 1   
   130  122  124 ar  
   131  122  131 1   
   132  123  124 ar  
   133  123  132 1   
   134  124  133 1   
   135  134  135 1   
   136  134  140 1   
   137  135  136 1   
   138  135  138 1   
   139  135  141 1   
   140  136  137 2   
   141  136  148 1   
   142  138  139 1   
   143  138  142 1   
   144  138  143 1   
   145  139  140 1   
   146  139  144 1   
   147  139  145 1   
   148  140  146 1   
   149  140  147 1   
   150  148  149 1   
   151  148  157 1   
   152  149  150 1   
   153  149  152 1   
   154  149  158 1   
   155  150  151 2   
   156  150  163 1   
   157  152  153 1   
   158  152  159 1   
   159  152  160 1   
   160  153  154 1   
   161  153  161 1   
   162  153  162 1   
   163  154  155 1   
   164  154  156 1   
   165  163  164 1   
   166  163  168 1   
   167  164  165 1   
   168  164  166 1   
   169  164  167 1   
   170  170  171 1   
   171  170  172 1   
   172  173  175 1   
   173  173  177 1   
   174  174  176 1   
   175  174  178 1   
   176  179  180 1   
   177  179  181 1   
   178  182  183 1   
   179  182  184 1   
   180  185  186 1   
   181  185  187 1   
   182  188  189 1   
   183  188  190 1   
@<TRIPOS>SUBSTRUCTURE
     1 MOL         1 TEMP              0 ****  ****    0 ROOT
