@<TRIPOS>MOLECULE
MOL
  175   173     1     0     0
SMALL
resp


@<TRIPOS>ATOM
      1 C1         -6.8090    7.9900    1.6120 c3        1 MOL     -0.316090
      2 C2         -7.6340    7.0690    0.5870 c         1 MOL      0.609655
      3 O1         -7.7380    7.4410   -0.5870 o         1 MOL     -0.570260
      4 H1         -5.9920    7.4110    2.0430 hc        1 MOL      0.071323
      5 H2         -6.4020    8.8510    1.0800 hc        1 MOL      0.071323
      6 H3         -7.4700    8.3330    2.4070 hc        1 MOL      0.071323
      7 N1         -8.2850    6.0220    1.0300 n         1 MOL     -0.377730
      8 C3         -9.1050    5.2130    0.1070 c3        1 MOL      0.049211
      9 C4         -8.2800    4.1790   -0.7440 c         1 MOL      0.563161
     10 O2         -8.7230    3.6340   -1.7410 o         1 MOL     -0.510368
     11 C5        -10.2020    4.4520    0.9610 c3        1 MOL     -0.103388
     12 C6        -11.3460    4.0190    0.1030 c         1 MOL      0.678893
     13 O3        -11.6900    2.8320    0.0360 o         1 MOL     -0.721247
     14 O4        -11.8700    4.9240   -0.6030 o         1 MOL     -0.721247
     15 H4         -8.2980    5.8170    2.0210 hn        1 MOL      0.240333
     16 H5         -9.6730    5.8890   -0.5400 h1        1 MOL      0.065880
     17 H6        -10.6590    5.1110    1.6920 hc        1 MOL     -0.014390
     18 H7         -9.7980    3.5640    1.4580 hc        1 MOL     -0.014390
     19 N2         -7.0690    3.8600   -0.2500 n         1 MOL     -0.526924
     20 C7         -6.1450    3.0440   -1.0280 c3        1 MOL      0.321906
     21 C8         -5.3060    2.2280   -0.0200 c         1 MOL      0.517852
     22 O5         -4.6740    2.7540    0.8780 o         1 MOL     -0.542365
     23 C9         -5.3140    3.9890   -1.8480 c3        1 MOL     -0.307866
     24 H8         -6.8190    4.2180    0.6560 hn        1 MOL      0.226242
     25 H9         -6.7540    2.4170   -1.6820 h1        1 MOL      0.027582
     26 H10        -5.8820    4.3550   -2.7060 hc        1 MOL      0.082042
     27 H11        -4.9190    4.7950   -1.2380 hc        1 MOL      0.082042
     28 H12        -4.5060    3.4200   -2.3170 hc        1 MOL      0.082042
     29 N3         -5.1720    0.9080   -0.1460 n         1 MOL     -0.481236
     30 C10        -5.7410   -0.0480   -1.1340 c3        1 MOL      0.014551
     31 C11        -5.9390   -1.4260   -0.4460 c         1 MOL      0.525300
     32 O6         -5.2570   -1.7660    0.5230 o         1 MOL     -0.571060
     33 C12        -4.8160   -0.0760   -2.3340 c3        1 MOL     -0.223397
     34 C13        -3.3430   -0.3790   -1.9530 c         1 MOL      0.700878
     35 O7         -2.7310   -1.4030   -2.3270 o         1 MOL     -0.697630
     36 O8         -2.7300    0.3950   -1.2090 o         1 MOL     -0.697630
     37 H13        -4.4710    0.4720    0.4310 hn        1 MOL      0.298454
     38 H14        -6.7420    0.3430   -1.3540 h1        1 MOL      0.061981
     39 H15        -4.7540    0.9570   -2.6750 hc        1 MOL      0.053305
     40 H16        -5.2000   -0.6940   -3.1450 hc        1 MOL      0.053305
     41 N4         -6.8710   -2.1920   -0.9300 n         1 MOL     -0.382634
     42 C14        -7.1920   -3.5590   -0.4140 c3        1 MOL      0.104512
     43 C15        -6.8600   -4.7470   -1.3380 c         1 MOL      0.463172
     44 O9         -7.7840   -5.4320   -1.7600 o         1 MOL     -0.545886
     45 H17        -7.3840   -1.8350   -1.7220 hn        1 MOL      0.300427
     46 H18        -8.2760   -3.5050   -0.2720 h1        1 MOL      0.043221
     47 H19        -6.8180   -3.7560    0.5850 h1        1 MOL      0.043221
     48 N5         -5.6300   -4.9810   -1.8020 n         1 MOL     -0.446732
     49 C16        -4.4280   -4.4560   -1.2250 c3        1 MOL      0.074943
     50 C17        -4.1170   -5.1560    0.1010 c         1 MOL      0.602627
     51 O10        -3.9600   -6.3630    0.1250 o         1 MOL     -0.569646
     52 C18        -3.3160   -4.5620   -2.3040 c3        1 MOL     -0.292215
     53 C19        -1.9240   -4.2730   -1.8690 c         1 MOL      0.667411
     54 N6         -1.0450   -4.5180   -2.7320 n         1 MOL     -0.711730
     55 O11        -1.6980   -3.5260   -0.8950 o         1 MOL     -0.606930
     56 H20        -5.5360   -5.8190   -2.3540 hn        1 MOL      0.307185
     57 H21        -4.5920   -3.4050   -1.0240 h1        1 MOL      0.083241
     58 H22        -3.6030   -3.9620   -3.1710 hc        1 MOL      0.076868
     59 H23        -3.3180   -5.6320   -2.5260 hc        1 MOL      0.076868
     60 H24        -1.3660   -4.8730   -3.6210 hn        1 MOL      0.359560
     61 H25        -0.0970   -4.3090   -2.4620 hn        1 MOL      0.359560
     62 N7         -3.9300   -4.4550    1.2140 n         1 MOL     -0.328464
     63 C20        -3.6020   -5.0340    2.5250 c3        1 MOL     -0.302399
     64 C21        -2.1100   -5.1200    2.8730 c         1 MOL      0.575457
     65 O12        -1.7060   -5.3150    3.9980 o         1 MOL     -0.571944
     66 H26        -3.9140   -3.4490    1.2050 hn        1 MOL      0.300935
     67 H27        -4.0100   -6.0420    2.6400 h1        1 MOL      0.141283
     68 H28        -4.0800   -4.4010    3.2830 h1        1 MOL      0.141283
     69 N8         -1.1250   -4.8030    1.9300 n         1 MOL     -0.270261
     70 C22         0.3360   -4.8580    2.1280 c3        1 MOL     -0.032093
     71 C23         1.0300   -3.4950    1.9250 c         1 MOL      0.350858
     72 O13         0.6940   -2.7770    0.9440 o         1 MOL     -0.480243
     73 C24         0.8920   -5.9810    1.2130 c3        1 MOL      0.401789
     74 C25         0.4110   -7.4020    1.6110 c3        1 MOL     -0.577625
     75 O14         0.5140   -5.7200   -0.1080 oh        1 MOL     -0.630010
     76 H29        -1.4650   -4.4320    1.0580 hn        1 MOL      0.224875
     77 H30         0.5770   -5.0830    3.1690 h1        1 MOL      0.057775
     78 H31         1.9860   -5.9870    1.2940 h1        1 MOL     -0.003333
     79 H32         1.2190   -5.2560   -0.5600 ho        1 MOL      0.435249
     80 H33         0.6050   -7.5580    2.6710 hc        1 MOL      0.146827
     81 H34        -0.6730   -7.3630    1.4460 hc        1 MOL      0.146827
     82 H35         0.7970   -8.1600    0.9200 hc        1 MOL      0.146827
     83 N9          2.0340   -3.2340    2.7910 n         1 MOL     -0.311202
     84 C26         3.0190   -2.1290    2.4440 c3        1 MOL      0.049880
     85 C27         3.9160   -2.6640    1.3800 c         1 MOL      0.266504
     86 O15         4.6370   -3.6610    1.5630 o         1 MOL     -0.562040
     87 C28         3.8490   -1.5930    3.6240 c3        1 MOL      0.268873
     88 C29         4.8730   -0.5540    3.1430 c3        1 MOL      0.267000
     89 C30         2.8950   -0.9730    4.6710 c3        1 MOL     -0.239532
     90 C31         5.8530   -0.2710    4.3030 c3        1 MOL     -0.292846
     91 H36         2.2950   -3.9920    3.4060 hn        1 MOL      0.255661
     92 H37         2.3740   -1.3400    2.0380 h1        1 MOL      0.054089
     93 H38         4.3850   -2.4090    4.0900 hc        1 MOL     -0.051129
     94 H39         4.2840    0.3000    2.8090 hc        1 MOL     -0.096870
     95 H40         5.4080   -1.0130    2.3170 hc        1 MOL     -0.096870
     96 H41         2.6760    0.0680    4.4290 hc        1 MOL      0.039229
     97 H42         2.0520   -1.6720    4.7570 hc        1 MOL      0.039229
     98 H43         3.3880   -0.9690    5.6420 hc        1 MOL      0.039229
     99 H44         6.7090    0.2920    3.9150 hc        1 MOL      0.055600
    100 H45         5.3890    0.1250    5.1990 hc        1 MOL      0.055600
    101 H46         6.3170   -1.1890    4.6590 hc        1 MOL      0.055600
    102 N10         3.8640   -2.0190    0.2070 n         1 MOL      0.101812
    103 C32         4.5220   -2.3910   -1.0230 c3        1 MOL      0.075051
    104 C33         5.8700   -1.5870   -1.2540 c         1 MOL      0.438601
    105 O16         6.6610   -1.8950   -2.1210 o         1 MOL     -0.530701
    106 C34         3.5280   -2.2600   -2.2190 c3        1 MOL     -0.137533
    107 C35         2.2180   -2.9690   -1.8450 c         1 MOL      0.852233
    108 O17         2.2260   -4.0680   -1.3700 o         1 MOL     -0.744582
    109 O18         1.1680   -2.4650   -2.2500 o         1 MOL     -0.744582
    110 H47         3.1850   -1.2750    0.1250 hn        1 MOL      0.010785
    111 H48         4.7620   -3.4500   -1.0180 h1        1 MOL      0.052997
    112 H49         3.9910   -2.6570   -3.1290 hc        1 MOL      0.008613
    113 H50         3.2900   -1.2110   -2.3660 hc        1 MOL      0.008613
    114 N11         6.0810   -0.4850   -0.4950 n         1 MOL     -0.525949
    115 C36         7.1740    0.4880   -0.8560 c3        1 MOL      0.545835
    116 C37         6.8500    1.9360   -0.2330 c         1 MOL      0.284565
    117 O19         6.4010    1.8840    0.9240 o         1 MOL     -0.491126
    118 C38         8.5290   -0.0760   -0.5470 c3        1 MOL     -0.292231
    119 C39         9.7040    0.5330   -1.3660 ca        1 MOL      0.176806
    120 C40        10.6640    1.3680   -0.6500 ca        1 MOL     -0.229229
    121 C41         9.8330    0.3870   -2.7780 ca        1 MOL     -0.229229
    122 C42        11.7790    1.8790   -1.3500 ca        1 MOL     -0.057444
    123 C43        10.9530    0.9010   -3.3720 ca        1 MOL     -0.057444
    124 C44        11.9010    1.6970   -2.7360 ca        1 MOL     -0.164773
    125 H51         5.4230   -0.2730    0.2440 hn        1 MOL      0.218804
    126 H52         7.0630    0.5180   -1.9420 h1        1 MOL     -0.029662
    127 H53         8.5630   -1.1490   -0.7450 hc        1 MOL      0.099708
    128 H54         8.7320    0.0440    0.5180 hc        1 MOL      0.099708
    129 H55        10.4310    1.7050    0.3530 ha        1 MOL      0.141189
    130 H56         9.0780   -0.1770   -3.3120 ha        1 MOL      0.141189
    131 H57        12.5700    2.4360   -0.8630 ha        1 MOL      0.087137
    132 H58        11.1150    0.8630   -4.4410 ha        1 MOL      0.087137
    133 H59        12.7500    2.0230   -3.3130 ha        1 MOL      0.113610
    134 N12         6.9600    3.0730   -0.9630 n         1 MOL     -0.328687
    135 C45         6.9530    4.4260   -0.3620 c3        1 MOL      0.178147
    136 C46         5.5960    4.9300    0.2460 c         1 MOL      0.329551
    137 O20         5.4650    6.0510    0.7860 o         1 MOL     -0.511618
    138 C47         7.4420    5.4140   -1.4880 c3        1 MOL     -0.238893
    139 C48         7.9410    4.4950   -2.6190 c3        1 MOL      0.167835
    140 C49         7.3790    3.1560   -2.3920 c3        1 MOL      0.013620
    141 H60         7.7480    4.5650    0.3630 h1        1 MOL      0.063538
    142 H61         6.5830    6.0100   -1.7830 hc        1 MOL      0.085813
    143 H62         8.2080    6.0810   -1.1020 hc        1 MOL      0.085813
    144 H63         7.6330    4.8370   -3.6070 hc        1 MOL     -0.023037
    145 H64         9.0230    4.3960   -2.6490 hc        1 MOL     -0.023037
    146 H65         6.5190    3.0250   -3.0460 h1        1 MOL      0.043872
    147 H66         8.0460    2.3510   -2.7030 h1        1 MOL      0.043872
    148 N13         4.5470    4.0350    0.2770 n         1 MOL     -0.153991
    149 C50         3.1580    4.4140    0.7160 c3        1 MOL     -0.367875
    150 C51         3.0540    4.8600    2.2140 c         1 MOL      0.586649
    151 O21         2.1210    5.6010    2.5870 o         1 MOL     -0.529908
    152 C52         2.1270    3.2860    0.3120 c3        1 MOL     -0.034707
    153 C53         2.2890    1.8750    0.9590 c3        1 MOL     -0.037908
    154 C54         1.2260    0.9170    0.3690 c         1 MOL      0.525782
    155 O22         1.7150   -0.0750   -0.2020 o         1 MOL     -0.628322
    156 O23         0.0140    1.0490    0.5680 o         1 MOL     -0.628322
    157 H67         4.6890    3.1500   -0.1830 hn        1 MOL      0.207551
    158 H68         2.9770    5.2970    0.0920 h1        1 MOL      0.186025
    159 H69         2.2570    3.1360   -0.7560 hc        1 MOL      0.061349
    160 H70         1.0880    3.5760    0.4800 hc        1 MOL      0.061349
    161 H71         2.1020    1.9650    2.0250 hc        1 MOL      0.037457
    162 H72         3.3130    1.5360    0.8760 hc        1 MOL      0.037457
    163 N14         4.0580    4.5290    3.0430 n         1 MOL     -0.212762
    164 C55         4.1000    4.9460    4.4760 c3        1 MOL     -0.199668
    165 H73         4.8760    4.3840    4.9950 h1        1 MOL      0.091488
    166 H74         4.3190    6.0110    4.5390 h1        1 MOL      0.091488
    167 H75         3.1340    4.7450    4.9410 h1        1 MOL      0.091488
    168 H76         4.8820    4.0550    2.7130 hn        1 MOL      0.223257
    169 Ca1        -0.5300   -1.1130   -0.8500 Ca        1 MOL      1.747957
    170 O24         0.2740    0.4490   -2.9290 oh        1 MOL     -0.912084
    171 H77         0.1120    0.3280   -3.8630 ho        1 MOL      0.430902
    172 H78         0.7480    1.2750   -2.8680 ho        1 MOL      0.430902
    173 O25        -2.4300   -1.1930    1.1910 oh        1 MOL     -0.912084
    174 H79        -2.3710   -0.3540    1.6460 ho        1 MOL      0.430902
    175 H80        -3.3440   -1.4690    1.2980 ho        1 MOL      0.430902
@<TRIPOS>BOND
     1    1    2 1   
     2    1    4 1   
     3    1    5 1   
     4    1    6 1   
     5    2    3 2   
     6    2    7 1   
     7    7    8 1   
     8    7   15 1   
     9    8    9 1   
    10    8   11 1   
    11    8   16 1   
    12    9   10 2   
    13    9   19 1   
    14   11   12 1   
    15   11   17 1   
    16   11   18 1   
    17   12   13 1   
    18   12   14 1   
    19   19   20 1   
    20   19   24 1   
    21   20   21 1   
    22   20   23 1   
    23   20   25 1   
    24   21   22 2   
    25   21   29 1   
    26   23   26 1   
    27   23   27 1   
    28   23   28 1   
    29   29   30 1   
    30   29   37 1   
    31   30   31 1   
    32   30   33 1   
    33   30   38 1   
    34   31   32 2   
    35   31   41 1   
    36   33   34 1   
    37   33   39 1   
    38   33   40 1   
    39   34   35 1   
    40   34   36 1   
    41   41   42 1   
    42   41   45 1   
    43   42   43 1   
    44   42   46 1   
    45   42   47 1   
    46   43   44 2   
    47   43   48 1   
    48   48   49 1   
    49   48   56 1   
    50   49   50 1   
    51   49   52 1   
    52   49   57 1   
    53   50   51 2   
    54   50   62 1   
    55   52   53 1   
    56   52   58 1   
    57   52   59 1   
    58   53   54 1   
    59   53   55 2   
    60   54   60 1   
    61   54   61 1   
    62   62   63 1   
    63   62   66 1   
    64   63   64 1   
    65   63   67 1   
    66   63   68 1   
    67   64   65 2   
    68   64   69 1   
    69   69   70 1   
    70   69   76 1   
    71   70   71 1   
    72   70   73 1   
    73   70   77 1   
    74   71   72 2   
    75   71   83 1   
    76   73   74 1   
    77   73   75 1   
    78   73   78 1   
    79   74   80 1   
    80   74   81 1   
    81   74   82 1   
    82   75   79 1   
    83   83   84 1   
    84   83   91 1   
    85   84   85 1   
    86   84   87 1   
    87   84   92 1   
    88   85   86 2   
    89   85  102 1   
    90   87   88 1   
    91   87   89 1   
    92   87   93 1   
    93   88   90 1   
    94   88   94 1   
    95   88   95 1   
    96   89   96 1   
    97   89   97 1   
    98   89   98 1   
    99   90   99 1   
   100   90  100 1   
   101   90  101 1   
   102  102  103 1   
   103  102  110 1   
   104  103  104 1   
   105  103  106 1   
   106  103  111 1   
   107  104  105 2   
   108  104  114 1   
   109  106  107 1   
   110  106  112 1   
   111  106  113 1   
   112  107  108 1   
   113  107  109 1   
   114  114  115 1   
   115  114  125 1   
   116  115  116 1   
   117  115  118 1   
   118  115  126 1   
   119  116  117 2   
   120  116  134 1   
   121  118  119 1   
   122  118  127 1   
   123  118  128 1   
   124  119  120 ar  
   125  119  121 ar  
   126  120  122 ar  
   127  120  129 1   
   128  121  123 ar  
   129  121  130 1   
   130  122  124 ar  
   131  122  131 1   
   132  123  124 ar  
   133  123  132 1   
   134  124  133 1   
   135  134  135 1   
   136  134  140 1   
   137  135  136 1   
   138  135  138 1   
   139  135  141 1   
   140  136  137 2   
   141  136  148 1   
   142  138  139 1   
   143  138  142 1   
   144  138  143 1   
   145  139  140 1   
   146  139  144 1   
   147  139  145 1   
   148  140  146 1   
   149  140  147 1   
   150  148  149 1   
   151  148  157 1   
   152  149  150 1   
   153  149  152 1   
   154  149  158 1   
   155  150  151 2   
   156  150  163 1   
   157  152  153 1   
   158  152  159 1   
   159  152  160 1   
   160  153  154 1   
   161  153  161 1   
   162  153  162 1   
   163  154  155 1   
   164  154  156 1   
   165  163  164 1   
   166  163  168 1   
   167  164  165 1   
   168  164  166 1   
   169  164  167 1   
   170  170  171 1   
   171  170  172 1   
   172  173  174 1   
   173  173  175 1   
@<TRIPOS>SUBSTRUCTURE
     1 MOL         1 TEMP              0 ****  ****    0 ROOT
