@<TRIPOS>MOLECULE
MOL
  178   175     1     0     0
SMALL
resp


@<TRIPOS>ATOM
      1 C1          2.2800   -1.2530    4.8680 c3        1 MOL     -0.391552
      2 C2          3.3830   -0.7990    3.9240 c         1 MOL      0.616826
      3 O1          3.2480   -0.1330    2.8970 o         1 MOL     -0.559427
      4 H1          1.5210   -1.7960    4.3050 hc        1 MOL      0.096588
      5 H2          2.7010   -1.9070    5.6320 hc        1 MOL      0.096588
      6 H3          1.8260   -0.3840    5.3440 hc        1 MOL      0.096588
      7 N1          4.5860   -1.2010    4.2550 n         1 MOL     -0.474571
      8 C3          5.8430   -0.9280    3.6060 c3        1 MOL      0.203626
      9 C4          6.1510   -1.7630    2.3420 c         1 MOL      0.456012
     10 O2          6.8650   -1.4130    1.4340 o         1 MOL     -0.353621
     11 C5          6.9340   -0.8890    4.6210 c3        1 MOL     -0.133624
     12 C6          8.1420   -0.0980    4.1840 c         1 MOL      0.693238
     13 O3          8.1510    0.4710    3.0580 o         1 MOL     -0.719834
     14 O4          9.1080   -0.1820    5.0010 o         1 MOL     -0.719834
     15 H4          4.6690   -1.7030    5.1220 hn        1 MOL      0.239861
     16 H5          5.6910    0.0770    3.2060 h1        1 MOL      0.050056
     17 H6          7.2140   -1.8670    5.0190 hc        1 MOL     -0.009685
     18 H7          6.6420   -0.3150    5.4960 hc        1 MOL     -0.009685
     19 N2          5.4580   -2.9180    2.2990 n         1 MOL     -0.527783
     20 C7          5.1820   -3.6910    1.0720 c3        1 MOL      0.161010
     21 C8          4.7320   -3.0730   -0.2690 c         1 MOL      0.878850
     22 O5          3.6400   -3.2710   -0.6980 o         1 MOL     -0.784342
     23 C9          6.3230   -4.6760    0.9350 c3        1 MOL     -0.256088
     24 H8          5.1070   -3.1880    3.2090 hn        1 MOL      0.273070
     25 H9          4.3220   -4.2840    1.3890 h1        1 MOL      0.068476
     26 H10         6.0190   -5.4040    0.1860 hc        1 MOL      0.057627
     27 H11         7.1940   -4.0850    0.6400 hc        1 MOL      0.057627
     28 H12         6.4530   -5.2270    1.8620 hc        1 MOL      0.057627
     29 N3          5.5430   -2.3290   -0.9830 n         1 MOL     -0.756902
     30 C10         5.4120   -1.9090   -2.4150 c3        1 MOL      0.524662
     31 C11         5.5880   -0.4190   -2.6290 c         1 MOL      0.271087
     32 O6          5.3830   -0.0580   -3.8140 o         1 MOL     -0.574996
     33 C12         6.4690   -2.7750   -3.1620 c3        1 MOL     -0.373106
     34 C13         7.9260   -2.6700   -2.5810 c         1 MOL      0.857710
     35 O7          8.3760   -1.6000   -2.1450 o         1 MOL     -0.734003
     36 O8          8.7200   -3.6280   -2.7540 o         1 MOL     -0.734003
     37 H13         6.4230   -2.0530   -0.5570 hn        1 MOL      0.238928
     38 H14         4.4320   -2.1120   -2.8370 h1        1 MOL      0.022597
     39 H15         6.4600   -2.5290   -4.2280 hc        1 MOL      0.027688
     40 H16         6.1300   -3.7950   -3.0310 hc        1 MOL      0.027688
     41 N4          5.8390    0.4720   -1.6820 n         1 MOL      0.048671
     42 C14         6.1810    1.9240   -1.9810 c3        1 MOL     -0.250052
     43 C15         4.9110    2.7600   -2.2850 c         1 MOL      0.586616
     44 O9          5.1040    3.8250   -2.8360 o         1 MOL     -0.565801
     45 H17         5.8090    0.2120   -0.7080 hn        1 MOL      0.137647
     46 H18         6.8610    2.0720   -2.8160 h1        1 MOL      0.129409
     47 H19         6.6590    2.2460   -1.0530 h1        1 MOL      0.129409
     48 N5          3.6830    2.2780   -2.0630 n         1 MOL     -0.217346
     49 C16         2.4110    2.8210   -2.4830 c3        1 MOL     -0.129223
     50 C17         1.9740    4.1150   -1.8120 c         1 MOL      0.635745
     51 O10         2.3230    4.2670   -0.6370 o         1 MOL     -0.499627
     52 C18         1.3860    1.7280   -2.2040 c3        1 MOL     -0.776324
     53 C19         1.5150    0.5620   -3.1400 c         1 MOL      1.012605
     54 N6          1.2330    0.7450   -4.3880 n         1 MOL     -0.830585
     55 O11         1.6670   -0.6620   -2.8590 o         1 MOL     -0.756868
     56 H20         3.6370    1.3930   -1.5730 hn        1 MOL      0.167931
     57 H21         2.4950    3.0610   -3.5430 h1        1 MOL      0.065976
     58 H22         0.4070    2.1890   -2.3440 hc        1 MOL      0.256656
     59 H23         1.4320    1.4260   -1.1600 hc        1 MOL      0.256656
     60 H24         1.0090    1.6760   -4.6940 hn        1 MOL      0.375870
     61 H25         1.3990   -0.0300   -5.0160 hn        1 MOL      0.375870
     62 N7          1.3800    4.9670   -2.6360 n         1 MOL     -0.446592
     63 C20         1.1050    6.4180   -2.4280 c3        1 MOL     -0.124398
     64 C21        -0.2870    6.6240   -1.7810 c         1 MOL      0.587741
     65 O12        -1.2650    6.0260   -2.2130 o         1 MOL     -0.551906
     66 H26         1.2720    4.6660   -3.5850 hn        1 MOL      0.305711
     67 H27         1.1790    7.0940   -3.2800 h1        1 MOL      0.098799
     68 H28         1.7600    6.7740   -1.6290 h1        1 MOL      0.098799
     69 N8         -0.3620    7.5390   -0.8250 n         1 MOL     -0.426477
     70 C22        -1.6090    7.9400   -0.1600 c3        1 MOL     -0.222893
     71 C23        -2.3180    6.8790    0.6810 c         1 MOL      0.435669
     72 O13        -3.1650    7.2330    1.4950 o         1 MOL     -0.539807
     73 C24        -1.4320    9.2370    0.6960 c3        1 MOL      0.561534
     74 C25        -0.6290    8.9320    1.9120 c3        1 MOL     -0.343086
     75 O14        -0.5700   10.1310   -0.0000 oh        1 MOL     -0.710056
     76 H29         0.4870    8.0450   -0.6210 hn        1 MOL      0.249209
     77 H30        -2.3010    8.0890   -0.9850 h1        1 MOL      0.143738
     78 H31        -2.4240    9.6320    0.9130 h1        1 MOL      0.015707
     79 H32         0.3650    9.9270    0.0350 ho        1 MOL      0.421682
     80 H33        -0.1730    9.8110    2.3790 hc        1 MOL      0.076703
     81 H34        -1.2360    8.4660    2.6840 hc        1 MOL      0.076703
     82 H35         0.1800    8.2410    1.6760 hc        1 MOL      0.076703
     83 N9         -1.8430    5.6640    0.5640 n         1 MOL     -0.230953
     84 C26        -2.1560    4.4310    1.3310 c3        1 MOL     -0.004271
     85 C27        -1.8220    3.1560    0.5330 c         1 MOL      0.364006
     86 O15        -1.0510    3.1570   -0.3980 o         1 MOL     -0.402922
     87 C28        -1.4180    4.3800    2.7050 c3        1 MOL      0.110358
     88 C29         0.1040    4.3850    2.7530 c3        1 MOL     -0.252325
     89 C30        -1.9520    5.4860    3.6200 c3        1 MOL     -0.232562
     90 C31         0.8150    3.1550    2.2320 c3        1 MOL     -0.009435
     91 H36        -0.9990    5.6260    0.0060 hn        1 MOL      0.260628
     92 H37        -3.2390    4.4530    1.5150 h1        1 MOL      0.086665
     93 H38        -1.8660    3.5580    3.2610 hc        1 MOL      0.010858
     94 H39         0.4360    4.4370    3.7910 hc        1 MOL      0.072236
     95 H40         0.4190    5.2940    2.2260 hc        1 MOL      0.072236
     96 H41        -1.4840    6.4440    3.3790 hc        1 MOL      0.061499
     97 H42        -3.0270    5.6060    3.4800 hc        1 MOL      0.061499
     98 H43        -1.6840    5.2620    4.6490 hc        1 MOL      0.061499
     99 H44         1.8270    3.1990    2.6430 hc        1 MOL      0.048025
    100 H45         0.3910    2.2390    2.6510 hc        1 MOL      0.048025
    101 H46         0.8480    3.0940    1.1490 hc        1 MOL      0.048025
    102 N10        -2.4900    2.0270    0.8830 n         1 MOL     -0.474597
    103 C32        -2.3200    0.6970    0.2110 c3        1 MOL      0.093930
    104 C33        -3.5890   -0.1440    0.0940 c         1 MOL      0.488616
    105 O16        -3.4880   -1.3570   -0.0300 o         1 MOL     -0.448948
    106 C34        -1.1330   -0.0540    0.8410 c3        1 MOL      0.042578
    107 C35        -0.2450   -1.0110   -0.0210 c         1 MOL      0.560413
    108 O17         0.8510   -1.5260    0.2980 o         1 MOL     -0.702921
    109 O18        -0.6700   -1.3460   -1.1420 o         1 MOL     -0.702921
    110 H47        -3.1210    2.2020    1.6490 hn        1 MOL      0.256978
    111 H48        -2.1010    0.9040   -0.8430 h1        1 MOL      0.073293
    112 H49        -1.4860   -0.6110    1.7160 hc        1 MOL      0.003466
    113 H50        -0.4720    0.7290    1.2210 hc        1 MOL      0.003466
    114 N11        -4.7620    0.4820    0.0510 n         1 MOL     -0.421959
    115 C36        -6.0120   -0.1970   -0.3900 c3        1 MOL      0.216414
    116 C37        -6.2030   -1.5100    0.4080 c         1 MOL      0.295288
    117 O19        -6.1940   -1.4650    1.6540 o         1 MOL     -0.447519
    118 C38        -7.2560    0.6580   -0.3200 c3        1 MOL     -0.310910
    119 C39        -8.4420    0.1920   -1.1090 ca        1 MOL      0.170248
    120 C40        -8.4260    0.3470   -2.5660 ca        1 MOL     -0.239476
    121 C41        -9.5890   -0.3790   -0.4450 ca        1 MOL     -0.239476
    122 C42        -9.4830   -0.1810   -3.3080 ca        1 MOL     -0.064286
    123 C43       -10.6130   -0.9220   -1.2440 ca        1 MOL     -0.064286
    124 C44       -10.5880   -0.7630   -2.6590 ca        1 MOL     -0.170537
    125 H51        -4.7340    1.4800    0.2070 hn        1 MOL      0.254788
    126 H52        -5.8500   -0.5500   -1.4150 h1        1 MOL      0.006325
    127 H53        -6.9470    1.6070   -0.7550 hc        1 MOL      0.112049
    128 H54        -7.5940    0.8190    0.7050 hc        1 MOL      0.112049
    129 H55        -7.5620    0.7650   -3.0680 ha        1 MOL      0.152168
    130 H56        -9.7020   -0.4730    0.6190 ha        1 MOL      0.152168
    131 H57        -9.4690   -0.1810   -4.3890 ha        1 MOL      0.101622
    132 H58       -11.4710   -1.3890   -0.7670 ha        1 MOL      0.101622
    133 H59       -11.4060   -1.1180   -3.2560 ha        1 MOL      0.108362
    134 N12        -6.4520   -2.7300   -0.2130 n         1 MOL     -0.108764
    135 C45        -6.7230   -3.9730    0.4740 c3        1 MOL      0.074904
    136 C46        -5.6510   -4.4720    1.4070 c         1 MOL      0.308638
    137 O20        -5.9390   -5.4370    2.1420 o         1 MOL     -0.533005
    138 C47        -6.9530   -5.0120   -0.6450 c3        1 MOL     -0.004316
    139 C48        -7.5380   -4.2230   -1.7950 c3        1 MOL     -0.148442
    140 C49        -6.8300   -2.8800   -1.6330 c3        1 MOL      0.098415
    141 H60        -7.6380   -3.9320    1.0700 h1        1 MOL      0.053060
    142 H61        -5.9460   -5.3670   -0.8740 hc        1 MOL      0.032703
    143 H62        -7.4020   -5.8970   -0.1840 hc        1 MOL      0.032703
    144 H63        -7.2920   -4.6810   -2.7510 hc        1 MOL      0.045679
    145 H64        -8.6220   -4.1130   -1.7330 hc        1 MOL      0.045679
    146 H65        -5.9750   -2.9120   -2.3080 h1        1 MOL      0.025089
    147 H66        -7.4540   -2.0500   -1.9570 h1        1 MOL      0.025089
    148 N13        -4.4140   -3.9120    1.4860 n         1 MOL      0.059270
    149 C50        -3.4700   -4.1390    2.5260 c3        1 MOL     -0.171408
    150 C51        -3.6530   -3.2570    3.7500 c         1 MOL      0.395287
    151 O21        -3.1990   -3.5920    4.8540 o         1 MOL     -0.558235
    152 C52        -2.1200   -4.0350    1.9050 c3        1 MOL      0.002798
    153 C53        -1.7570   -5.2170    0.9530 c3        1 MOL      0.096364
    154 C54        -0.6700   -4.9380   -0.0310 c         1 MOL      0.603896
    155 O22         0.5420   -5.0380    0.2780 o         1 MOL     -0.757180
    156 O23        -1.0270   -4.3450   -1.0970 o         1 MOL     -0.757180
    157 H67        -4.2610   -3.1540    0.8530 hn        1 MOL      0.020770
    158 H68        -3.6080   -5.1600    2.8970 h1        1 MOL      0.097348
    159 H69        -1.3480   -4.0970    2.6740 hc        1 MOL      0.078304
    160 H70        -2.1130   -3.0870    1.3620 hc        1 MOL      0.078304
    161 H71        -2.6210   -5.5280    0.3820 hc        1 MOL     -0.052844
    162 H72        -1.4920   -6.0850    1.5670 hc        1 MOL     -0.052844
    163 N14        -4.3520   -2.1720    3.5930 n         1 MOL     -0.008954
    164 C55        -4.5000   -1.0070    4.4650 c3        1 MOL     -0.240021
    165 H73        -3.8250   -1.1030    5.3160 h1        1 MOL      0.089832
    166 H74        -4.2580   -0.1030    3.9090 h1        1 MOL      0.089832
    167 H75        -5.5280   -0.9500    4.8240 h1        1 MOL      0.089832
    168 H76        -4.9310   -2.1150    2.7600 hn        1 MOL      0.072472
    169 Ca1         1.1430   -3.1580   -1.8470 Ca        1 MOL      1.811581
    170 O24         2.9850   -3.5210   -3.9470 oh        1 MOL     -0.767173
    171 H77         3.5150   -3.0170   -4.5660 ho        1 MOL      0.379679
    172 H78         3.2580   -4.4280   -4.0760 ho        1 MOL      0.379679
    173 O25         0.9620   -5.9340   -2.8210 oh        1 MOL     -0.767173
    174 H79         0.0440   -6.1610   -2.9490 ho        1 MOL      0.379679
    175 H80         1.4390   -6.7070   -3.1100 ho        1 MOL      0.379679
    176 O26        -0.3650   -3.2070   -4.0970 oh        1 MOL     -0.767173
    177 H81        -0.3560   -3.8650   -4.7900 ho        1 MOL      0.379679
    178 H82        -1.2880   -3.1060   -3.8670 ho        1 MOL      0.379679
@<TRIPOS>BOND
     1    1    2 1   
     2    1    4 1   
     3    1    5 1   
     4    1    6 1   
     5    2    3 2   
     6    2    7 1   
     7    7    8 1   
     8    7   15 1   
     9    8    9 1   
    10    8   11 1   
    11    8   16 1   
    12    9   10 2   
    13    9   19 1   
    14   11   12 1   
    15   11   17 1   
    16   11   18 1   
    17   12   13 1   
    18   12   14 1   
    19   19   20 1   
    20   19   24 1   
    21   20   21 1   
    22   20   23 1   
    23   20   25 1   
    24   21   22 2   
    25   21   29 1   
    26   23   26 1   
    27   23   27 1   
    28   23   28 1   
    29   29   30 1   
    30   29   37 1   
    31   30   31 1   
    32   30   33 1   
    33   30   38 1   
    34   31   32 2   
    35   31   41 1   
    36   33   34 1   
    37   33   39 1   
    38   33   40 1   
    39   34   35 1   
    40   34   36 1   
    41   41   42 1   
    42   41   45 1   
    43   42   43 1   
    44   42   46 1   
    45   42   47 1   
    46   43   44 2   
    47   43   48 1   
    48   48   49 1   
    49   48   56 1   
    50   49   50 1   
    51   49   52 1   
    52   49   57 1   
    53   50   51 2   
    54   50   62 1   
    55   52   53 1   
    56   52   58 1   
    57   52   59 1   
    58   53   54 1   
    59   53   55 2   
    60   54   60 1   
    61   54   61 1   
    62   62   63 1   
    63   62   66 1   
    64   63   64 1   
    65   63   67 1   
    66   63   68 1   
    67   64   65 2   
    68   64   69 1   
    69   69   70 1   
    70   69   76 1   
    71   70   71 1   
    72   70   73 1   
    73   70   77 1   
    74   71   72 2   
    75   71   83 1   
    76   73   74 1   
    77   73   75 1   
    78   73   78 1   
    79   74   80 1   
    80   74   81 1   
    81   74   82 1   
    82   75   79 1   
    83   83   84 1   
    84   83   91 1   
    85   84   85 1   
    86   84   87 1   
    87   84   92 1   
    88   85   86 2   
    89   85  102 1   
    90   87   88 1   
    91   87   89 1   
    92   87   93 1   
    93   88   90 1   
    94   88   94 1   
    95   88   95 1   
    96   89   96 1   
    97   89   97 1   
    98   89   98 1   
    99   90   99 1   
   100   90  100 1   
   101   90  101 1   
   102  102  103 1   
   103  102  110 1   
   104  103  104 1   
   105  103  106 1   
   106  103  111 1   
   107  104  105 2   
   108  104  114 1   
   109  106  107 1   
   110  106  112 1   
   111  106  113 1   
   112  107  108 1   
   113  107  109 1   
   114  114  115 1   
   115  114  125 1   
   116  115  116 1   
   117  115  118 1   
   118  115  126 1   
   119  116  117 2   
   120  116  134 1   
   121  118  119 1   
   122  118  127 1   
   123  118  128 1   
   124  119  120 ar  
   125  119  121 ar  
   126  120  122 ar  
   127  120  129 1   
   128  121  123 ar  
   129  121  130 1   
   130  122  124 ar  
   131  122  131 1   
   132  123  124 ar  
   133  123  132 1   
   134  124  133 1   
   135  134  135 1   
   136  134  140 1   
   137  135  136 1   
   138  135  138 1   
   139  135  141 1   
   140  136  137 2   
   141  136  148 1   
   142  138  139 1   
   143  138  142 1   
   144  138  143 1   
   145  139  140 1   
   146  139  144 1   
   147  139  145 1   
   148  140  146 1   
   149  140  147 1   
   150  148  149 1   
   151  148  157 1   
   152  149  150 1   
   153  149  152 1   
   154  149  158 1   
   155  150  151 2   
   156  150  163 1   
   157  152  153 1   
   158  152  159 1   
   159  152  160 1   
   160  153  154 1   
   161  153  161 1   
   162  153  162 1   
   163  154  155 1   
   164  154  156 1   
   165  163  164 1   
   166  163  168 1   
   167  164  165 1   
   168  164  166 1   
   169  164  167 1   
   170  170  171 1   
   171  170  172 1   
   172  173  174 1   
   173  173  175 1   
   174  176  177 1   
   175  176  178 1   
@<TRIPOS>SUBSTRUCTURE
     1 MOL         1 TEMP              0 ****  ****    0 ROOT
