@<TRIPOS>MOLECULE
MOL
  195   189     1     0     0
SMALL
resp


@<TRIPOS>ATOM
      1 C1          2.1590   -6.4080    2.6260 c3        1 MOL     -0.278065
      2 C2          2.3520   -5.2400    1.6020 c         1 MOL      0.706602
      3 O1          3.4190   -5.1630    0.9650 o         1 MOL     -0.605438
      4 H1          1.8480   -7.3070    2.0950 hc        1 MOL      0.073812
      5 H2          3.0990   -6.5980    3.1440 hc        1 MOL      0.073812
      6 H3          1.3930   -6.1320    3.3520 hc        1 MOL      0.073812
      7 N1          1.3730   -4.2450    1.4640 n         1 MOL     -0.632141
      8 C3         -0.0150   -4.3200    1.7190 c3        1 MOL      0.291320
      9 C4         -0.7560   -5.2840    0.7450 c         1 MOL      0.285979
     10 O2         -1.4820   -6.1860    1.1520 o         1 MOL     -0.523203
     11 C5         -0.7450   -2.9600    1.8550 c3        1 MOL     -0.189166
     12 C6          0.1080   -1.8970    2.6590 c         1 MOL      0.840199
     13 O3          0.1910   -0.7320    2.2720 o         1 MOL     -0.786936
     14 O4          0.6960   -2.1300    3.7590 o         1 MOL     -0.786936
     15 H4          1.5630   -3.6520    0.6640 hn        1 MOL      0.309033
     16 H5         -0.1260   -4.6800    2.7530 h1        1 MOL      0.017712
     17 H6         -1.6550   -3.1300    2.4300 hc        1 MOL      0.047411
     18 H7         -0.9680   -2.5070    0.8900 hc        1 MOL      0.047411
     19 N2         -0.5330   -5.1860   -0.5620 n         1 MOL     -0.052463
     20 C7         -1.0630   -6.1690   -1.5060 c3        1 MOL     -0.219938
     21 C8         -2.4910   -6.0210   -1.9800 c         1 MOL      0.383280
     22 O5         -3.1380   -6.9210   -2.5710 o         1 MOL     -0.576045
     23 C9         -0.0840   -6.4310   -2.6160 c3        1 MOL      0.132685
     24 C10         0.5270   -5.2700   -3.4080 c3        1 MOL      0.029136
     25 C11         1.0640   -7.3280   -2.1650 c3        1 MOL     -0.319590
     26 C12        -0.4700   -4.2580   -3.9060 c3        1 MOL     -0.185109
     27 H8          0.1260   -4.4930   -0.9130 hn        1 MOL      0.217914
     28 H9         -1.2110   -7.1390   -1.0420 h1        1 MOL      0.151054
     29 H10        -0.6170   -7.0070   -3.3750 hc        1 MOL      0.023854
     30 H11         1.1430   -5.6430   -4.2280 hc        1 MOL     -0.001410
     31 H12         1.2240   -4.8040   -2.6980 hc        1 MOL     -0.001410
     32 H13         0.6840   -8.2500   -1.7360 hc        1 MOL      0.065332
     33 H14         1.5970   -7.6890   -3.0530 hc        1 MOL      0.065332
     34 H15         1.7180   -6.8340   -1.4490 hc        1 MOL      0.065332
     35 H16        -0.0240   -3.4330   -4.4530 hc        1 MOL      0.040198
     36 H17        -1.2030   -4.6880   -4.5790 hc        1 MOL      0.040198
     37 H18        -1.0580   -3.8380   -3.0760 hc        1 MOL      0.040198
     38 N3         -3.1670   -4.9300   -1.6050 n         1 MOL     -0.002263
     39 C13        -4.6040   -4.7000   -1.7600 c3        1 MOL      0.051650
     40 C14        -5.0270   -3.9760   -0.4670 c         1 MOL      0.390092
     41 O6         -4.1540   -3.6930    0.4490 o         1 MOL     -0.480774
     42 C15        -4.8660   -3.7810   -2.9680 c3        1 MOL     -0.097154
     43 C16        -6.3100   -3.7540   -3.4440 c         1 MOL      0.610024
     44 O7         -6.5810   -2.8620   -4.3510 o         1 MOL     -0.700552
     45 O8         -7.1590   -4.5180   -2.8790 o         1 MOL     -0.700552
     46 H19        -2.6820   -4.3830   -0.9180 hn        1 MOL      0.091565
     47 H20        -5.2800   -5.5490   -1.8440 h1        1 MOL      0.040768
     48 H21        -4.2550   -4.0090   -3.8310 hc        1 MOL      0.008615
     49 H22        -4.5760   -2.7460   -2.7620 hc        1 MOL      0.008615
     50 N4         -6.3630   -3.8150   -0.2350 n         1 MOL     -0.386873
     51 C17        -6.8300   -3.0650    0.9130 c3        1 MOL     -0.224119
     52 C18        -6.9340   -1.5660    0.6890 c         1 MOL      0.774902
     53 O9         -6.8770   -1.1470   -0.4270 o         1 MOL     -0.522451
     54 H23        -7.0350   -3.9910   -0.9690 hn        1 MOL      0.336629
     55 H24        -6.1490   -3.1160    1.7660 h1        1 MOL      0.095426
     56 H25        -7.8220   -3.4770    1.0860 h1        1 MOL      0.095426
     57 N5         -6.9940   -0.7480    1.7150 n         1 MOL     -0.720866
     58 C19        -6.9240    0.7260    1.5900 c3        1 MOL      0.332888
     59 C20        -7.9950    1.2710    0.6260 c         1 MOL      0.458233
     60 O10        -9.1380    0.8620    0.6480 o         1 MOL     -0.525879
     61 C21        -7.1310    1.3310    2.9890 c3        1 MOL     -0.330724
     62 C22        -6.2670    0.6020    3.9730 c         1 MOL      0.794445
     63 O11        -6.6340   -0.4760    4.4250 o         1 MOL     -0.741673
     64 O12        -5.2110    1.2200    4.2990 o         1 MOL     -0.741673
     65 H26        -7.1730   -1.1060    2.6490 hn        1 MOL      0.341084
     66 H27        -5.9150    0.9320    1.2430 h1        1 MOL      0.028746
     67 H28        -8.1810    1.2590    3.2960 hc        1 MOL      0.040712
     68 H29        -6.8740    2.3880    2.9010 hc        1 MOL      0.040712
     69 N6         -7.5580    2.1480   -0.3420 n         1 MOL     -0.621029
     70 C23        -6.2800    2.8730   -0.3260 c3        1 MOL      0.399133
     71 C24        -6.3330    4.1890   -1.1030 c         1 MOL      0.374862
     72 O13        -7.2640    4.3030   -1.8930 o         1 MOL     -0.534603
     73 H30        -8.2060    2.4160   -1.0720 hn        1 MOL      0.339423
     74 H31        -5.4800    2.2500   -0.7280 h1        1 MOL     -0.030002
     75 H32        -6.0130    3.0240    0.7210 h1        1 MOL     -0.030002
     76 N7         -5.3810    5.1290   -1.0290 n         1 MOL     -0.384505
     77 C25        -4.1220    5.1110   -0.2930 c3        1 MOL     -0.005222
     78 C26        -3.0480    4.1720   -0.9520 c         1 MOL      0.564522
     79 O14        -3.3710    3.1070   -1.5030 o         1 MOL     -0.465405
     80 C27        -4.1760    4.8470    1.2330 c3        1 MOL      0.114607
     81 C28        -5.3060    5.5770    2.0470 c3        1 MOL     -0.297380
     82 C29        -5.4500    7.0540    1.7560 c         1 MOL      0.682366
     83 N8         -6.6370    7.6960    1.8360 n         1 MOL     -0.802740
     84 O15        -4.5120    7.6320    1.2690 o         1 MOL     -0.547520
     85 H33        -5.5110    5.8490   -1.7340 hn        1 MOL      0.290548
     86 H34        -3.7770    6.1390   -0.4860 h1        1 MOL      0.075314
     87 H35        -3.2720    5.3160    1.6060 hc        1 MOL      0.001574
     88 H36        -4.0540    3.7820    1.4150 hc        1 MOL      0.001574
     89 H37        -5.1690    5.5780    3.1290 hc        1 MOL      0.071690
     90 H38        -6.2620    5.1540    1.7430 hc        1 MOL      0.071690
     91 H39        -7.3410    7.1680    2.3180 hn        1 MOL      0.359151
     92 H40        -6.8250    8.6860    1.7210 hn        1 MOL      0.359151
     93 N9         -1.7630    4.5970   -0.9940 n         1 MOL     -0.541201
     94 C30        -0.5770    3.7830   -1.1000 c3        1 MOL     -0.127705
     95 C31        -0.5100    2.9450   -2.3630 c         1 MOL      0.555601
     96 O16        -0.8700    3.3380   -3.4880 o         1 MOL     -0.509327
     97 C32         0.6870    4.6310   -0.8350 c3        1 MOL      0.229115
     98 C33         0.7850    5.2470    0.5450 c3        1 MOL     -0.154957
     99 C34         0.8750    5.7080   -1.9130 c3        1 MOL     -0.154957
    100 H41        -1.6950    5.4730   -0.4770 hn        1 MOL      0.264500
    101 H42        -0.6710    3.1360   -0.2250 h1        1 MOL      0.115105
    102 H43         1.5050    3.9170   -0.9180 hc        1 MOL      0.007440
    103 H44         0.1270    6.0980    0.7210 hc        1 MOL      0.035293
    104 H45         0.5960    4.4420    1.2520 hc        1 MOL      0.035293
    105 H46         1.8140    5.5390    0.7190 hc        1 MOL      0.035293
    106 H47         1.8730    6.1390   -1.8490 hc        1 MOL      0.035293
    107 H48         0.8050    5.3990   -2.9570 hc        1 MOL      0.035293
    108 H49         0.2940    6.5970   -1.6820 hc        1 MOL      0.035293
    109 N10         0.0790    1.7900   -2.2190 n         1 MOL     -0.510894
    110 C35         0.2830    0.8000   -3.3410 c3        1 MOL      0.099251
    111 C36         1.5970   -0.0300   -3.2190 c         1 MOL      0.541682
    112 O17         1.7170   -1.2280   -3.5050 o         1 MOL     -0.499326
    113 C37        -0.9710   -0.1310   -3.4930 c3        1 MOL     -0.342401
    114 C38        -1.5860   -0.5330   -2.1730 c         1 MOL      0.718327
    115 N11        -2.5820    0.0830   -1.5860 n         1 MOL     -0.771376
    116 O18        -1.1720   -1.5080   -1.5450 o         1 MOL     -0.583254
    117 H50         0.4120    1.4530   -1.3270 hn        1 MOL      0.296437
    118 H51         0.4280    1.2680   -4.3190 h1        1 MOL      0.071738
    119 H52        -0.7860   -0.9490   -4.1930 hc        1 MOL      0.123874
    120 H53        -1.7870    0.3720   -4.0090 hc        1 MOL      0.123874
    121 H54        -2.9940    0.8720   -2.0650 hn        1 MOL      0.378470
    122 H55        -2.8310   -0.2620   -0.6710 hn        1 MOL      0.378470
    123 N12         2.6810    0.7320   -2.8740 n         1 MOL     -0.482065
    124 C39         4.1510    0.3710   -2.9010 c3        1 MOL      0.066668
    125 C40         4.8100    0.9210   -1.6240 c         1 MOL      0.663628
    126 O19         4.1420    1.6420   -0.8740 o         1 MOL     -0.552715
    127 C41         4.8150    1.0820   -4.1290 c3        1 MOL     -0.009775
    128 C42         4.4640    2.5800   -4.1400 ca        1 MOL      0.099965
    129 C43         5.4010    3.4670   -3.5610 ca        1 MOL     -0.248652
    130 C44         3.2900    3.1100   -4.7360 ca        1 MOL     -0.248652
    131 C45         5.1690    4.8360   -3.5250 ca        1 MOL     -0.133454
    132 C46         2.9680    4.4830   -4.5390 ca        1 MOL     -0.133454
    133 C47         3.9480    5.3700   -3.9830 ca        1 MOL      0.176682
    134 O20         3.6950    6.6620   -3.7690 oh        1 MOL     -0.459504
    135 H56         2.5280    1.6690   -2.5190 hn        1 MOL      0.278236
    136 H57         4.3040   -0.6960   -3.0660 h1        1 MOL      0.073641
    137 H58         4.5500    0.6230   -5.0790 hc        1 MOL      0.020708
    138 H59         5.8910    0.9320   -4.1890 hc        1 MOL      0.020708
    139 H60         6.3440    3.0410   -3.2570 ha        1 MOL      0.133465
    140 H61         2.6070    2.4340   -5.2390 ha        1 MOL      0.133465
    141 H62         5.9560    5.5030   -3.2230 ha        1 MOL      0.143286
    142 H63         2.0490    4.8810   -4.9370 ha        1 MOL      0.143286
    143 H64         2.8060    6.9310   -4.0000 ho        1 MOL      0.357625
    144 N13         6.0580    0.6550   -1.3040 n         1 MOL     -0.670233
    145 C48         6.7500    0.9670   -0.0010 c3        1 MOL      0.330260
    146 C49         7.2180   -0.3320    0.6160 c         1 MOL      0.369748
    147 O21         8.3860   -0.6550    0.5200 o         1 MOL     -0.480244
    148 C50         7.8200    2.0380   -0.2860 c3        1 MOL     -0.256772
    149 C51         8.2590    2.7110    1.0230 c3        1 MOL     -0.294025
    150 C52         9.0950    3.9440    0.8120 c         1 MOL      0.736026
    151 O22        10.2720    3.7860    0.4160 o         1 MOL     -0.747395
    152 O23         8.7150    5.1560    1.0130 o         1 MOL     -0.747395
    153 H65         6.5370   -0.0280   -1.8710 hn        1 MOL      0.282989
    154 H66         6.0400    1.4480    0.6710 h1        1 MOL      0.037013
    155 H67         7.3620    2.8170   -0.8850 hc        1 MOL      0.126257
    156 H68         8.7240    1.7160   -0.8100 hc        1 MOL      0.126257
    157 H69         8.8660    2.0520    1.6410 hc        1 MOL      0.047731
    158 H70         7.4070    2.9090    1.6700 hc        1 MOL      0.047731
    159 N14         6.2750   -1.1080    1.2310 n         1 MOL     -0.291631
    160 C53         6.5840   -2.4880    1.4750 c3        1 MOL     -0.072644
    161 C54         6.7770   -3.4530    0.2220 c         1 MOL      0.398476
    162 O24         7.5940   -4.3580    0.1600 o         1 MOL     -0.526221
    163 C55         5.4360   -2.9720    2.3820 c3        1 MOL      0.014444
    164 C56         5.2450   -2.2620    3.7340 c3        1 MOL     -0.213122
    165 C57         4.4360   -0.9390    3.6300 c         1 MOL      0.583950
    166 O25         4.3690   -0.1550    4.6430 o         1 MOL     -0.704321
    167 O26         3.5940   -0.8570    2.7190 o         1 MOL     -0.704321
    168 H71         5.3260   -0.7690    1.3460 hn        1 MOL      0.262912
    169 H72         7.4850   -2.6000    2.0800 h1        1 MOL      0.088961
    170 H73         5.6690   -3.9990    2.6570 hc        1 MOL      0.047348
    171 H74         4.4370   -2.9940    1.9470 hc        1 MOL      0.047348
    172 H75         6.1960   -1.9790    4.1830 hc        1 MOL      0.061206
    173 H76         4.7160   -2.8230    4.5070 hc        1 MOL      0.061206
    174 N15         5.9240   -3.1570   -0.7680 n         1 MOL     -0.056552
    175 C58         5.8040   -3.8020   -2.0950 c3        1 MOL     -0.084712
    176 H77         4.7500   -3.9330   -2.3400 h1        1 MOL      0.049365
    177 H78         6.2770   -3.1740   -2.8500 h1        1 MOL      0.049365
    178 H79         6.2950   -4.7750   -2.0720 h1        1 MOL      0.049365
    179 H80         5.2310   -2.4450   -0.6070 hn        1 MOL      0.124268
    180 Ca1         1.7680    0.2950    4.1880 Ca        1 MOL      1.835259
    181 O27         2.2180   -0.6900    6.6920 oh        1 MOL     -0.872975
    182 O28         2.5160    2.2300    5.8820 oh        1 MOL     -0.872975
    183 H81         2.9710   -0.7600    7.2730 ho        1 MOL      0.425769
    184 H82         3.1750    2.2100    6.5710 ho        1 MOL      0.425769
    185 H83         1.4640   -0.7100    7.2820 ho        1 MOL      0.425769
    186 H84         2.2400    3.1440    5.8460 ho        1 MOL      0.425769
    187 O29        -0.6640    0.0320    5.5090 oh        1 MOL     -0.872975
    188 H85        -1.4130   -0.2100    4.9600 ho        1 MOL      0.425769
    189 H86        -1.0220    0.1090    6.3940 ho        1 MOL      0.425769
    190 O30         0.0330    2.4330    3.5440 oh        1 MOL     -0.872975
    191 H87        -0.1490    3.3710    3.4660 ho        1 MOL      0.425769
    192 H88        -0.8330    2.0290    3.5540 ho        1 MOL      0.425769
    193 O31         3.0170    1.9240    2.2740 oh        1 MOL     -0.872975
    194 H89         3.3300    2.7540    2.6420 ho        1 MOL      0.425769
    195 H90         3.0600    2.0520    1.3290 ho        1 MOL      0.425769
@<TRIPOS>BOND
     1    1    2 1   
     2    1    4 1   
     3    1    5 1   
     4    1    6 1   
     5    2    3 2   
     6    2    7 1   
     7    7    8 1   
     8    7   15 1   
     9    8    9 1   
    10    8   11 1   
    11    8   16 1   
    12    9   10 2   
    13    9   19 1   
    14   11   12 1   
    15   11   17 1   
    16   11   18 1   
    17   12   13 1   
    18   12   14 1   
    19   19   20 1   
    20   19   27 1   
    21   20   21 1   
    22   20   23 1   
    23   20   28 1   
    24   21   22 2   
    25   21   38 1   
    26   23   24 1   
    27   23   25 1   
    28   23   29 1   
    29   24   26 1   
    30   24   30 1   
    31   24   31 1   
    32   25   32 1   
    33   25   33 1   
    34   25   34 1   
    35   26   35 1   
    36   26   36 1   
    37   26   37 1   
    38   38   39 1   
    39   38   46 1   
    40   39   40 1   
    41   39   42 1   
    42   39   47 1   
    43   40   41 2   
    44   40   50 1   
    45   42   43 1   
    46   42   48 1   
    47   42   49 1   
    48   43   44 1   
    49   43   45 1   
    50   50   51 1   
    51   50   54 1   
    52   51   52 1   
    53   51   55 1   
    54   51   56 1   
    55   52   53 2   
    56   52   57 1   
    57   57   58 1   
    58   57   65 1   
    59   58   59 1   
    60   58   61 1   
    61   58   66 1   
    62   59   60 2   
    63   59   69 1   
    64   61   62 1   
    65   61   67 1   
    66   61   68 1   
    67   62   63 1   
    68   62   64 1   
    69   69   70 1   
    70   69   73 1   
    71   70   71 1   
    72   70   74 1   
    73   70   75 1   
    74   71   72 2   
    75   71   76 1   
    76   76   77 1   
    77   76   85 1   
    78   77   78 1   
    79   77   80 1   
    80   77   86 1   
    81   78   79 2   
    82   78   93 1   
    83   80   81 1   
    84   80   87 1   
    85   80   88 1   
    86   81   82 1   
    87   81   89 1   
    88   81   90 1   
    89   82   83 1   
    90   82   84 2   
    91   83   91 1   
    92   83   92 1   
    93   93   94 1   
    94   93  100 1   
    95   94   95 1   
    96   94   97 1   
    97   94  101 1   
    98   95   96 2   
    99   95  109 1   
   100   97   98 1   
   101   97   99 1   
   102   97  102 1   
   103   98  103 1   
   104   98  104 1   
   105   98  105 1   
   106   99  106 1   
   107   99  107 1   
   108   99  108 1   
   109  109  110 1   
   110  109  117 1   
   111  110  111 1   
   112  110  113 1   
   113  110  118 1   
   114  111  112 2   
   115  111  123 1   
   116  113  114 1   
   117  113  119 1   
   118  113  120 1   
   119  114  115 1   
   120  114  116 2   
   121  115  121 1   
   122  115  122 1   
   123  123  124 1   
   124  123  135 1   
   125  124  125 1   
   126  124  127 1   
   127  124  136 1   
   128  125  126 2   
   129  125  144 1   
   130  127  128 1   
   131  127  137 1   
   132  127  138 1   
   133  128  129 ar  
   134  128  130 ar  
   135  129  131 ar  
   136  129  139 1   
   137  130  132 ar  
   138  130  140 1   
   139  131  133 ar  
   140  131  141 1   
   141  132  133 ar  
   142  132  142 1   
   143  133  134 1   
   144  134  143 1   
   145  144  145 1   
   146  144  153 1   
   147  145  146 1   
   148  145  148 1   
   149  145  154 1   
   150  146  147 2   
   151  146  159 1   
   152  148  149 1   
   153  148  155 1   
   154  148  156 1   
   155  149  150 1   
   156  149  157 1   
   157  149  158 1   
   158  150  151 1   
   159  150  152 1   
   160  159  160 1   
   161  159  168 1   
   162  160  161 1   
   163  160  163 1   
   164  160  169 1   
   165  161  162 2   
   166  161  174 1   
   167  163  164 1   
   168  163  170 1   
   169  163  171 1   
   170  164  165 1   
   171  164  172 1   
   172  164  173 1   
   173  165  166 1   
   174  165  167 1   
   175  174  175 1   
   176  174  179 1   
   177  175  176 1   
   178  175  177 1   
   179  175  178 1   
   180  181  183 1   
   181  181  185 1   
   182  182  184 1   
   183  182  186 1   
   184  187  188 1   
   185  187  189 1   
   186  190  191 1   
   187  190  192 1   
   188  193  194 1   
   189  193  195 1   
@<TRIPOS>SUBSTRUCTURE
     1 MOL         1 TEMP              0 ****  ****    0 ROOT
