@<TRIPOS>MOLECULE
MOL
  192   187     1     0     0
SMALL
resp


@<TRIPOS>ATOM
      1 C1          9.2060    0.7510    1.8730 c3        1 MOL     -0.433530
      2 C2          7.9520    0.3980    1.0650 c         1 MOL      0.656307
      3 O1          6.8640    0.2930    1.6210 o         1 MOL     -0.617522
      4 H1          9.9380    1.2250    1.2190 hc        1 MOL      0.108401
      5 H2          8.9400    1.4370    2.6760 hc        1 MOL      0.108401
      6 H3          9.6340   -0.1580    2.2960 hc        1 MOL      0.108401
      7 N1          8.2220    0.2470   -0.2550 n         1 MOL     -0.325002
      8 C3          7.3400   -0.0850   -1.3440 c3        1 MOL     -0.101655
      9 C4          6.6910   -1.5240   -1.3130 c         1 MOL      0.665140
     10 O2          6.4290   -2.1110   -2.3480 o         1 MOL     -0.455258
     11 C5          7.9720    0.2300   -2.7020 c3        1 MOL     -0.010108
     12 C6          9.2830   -0.5420   -2.9310 c         1 MOL      0.594025
     13 O3         10.2250   -0.4230   -2.0810 o         1 MOL     -0.615231
     14 O4          9.3820   -1.3040   -3.9090 o         1 MOL     -0.615231
     15 H4          9.1880    0.2430   -0.5520 hn        1 MOL      0.140635
     16 H5          6.5110    0.5910   -1.1660 h1        1 MOL      0.072342
     17 H6          8.0890    1.3110   -2.8010 hc        1 MOL      0.019059
     18 H7          7.2470   -0.0410   -3.4710 hc        1 MOL      0.019059
     19 N2          6.6290   -2.0930   -0.1490 n         1 MOL     -0.482282
     20 C7          6.2730   -3.5170    0.0130 c3        1 MOL     -0.027907
     21 C8          4.8060   -3.7420   -0.5000 c         1 MOL      0.406526
     22 O5          4.7300   -4.6940   -1.2820 o         1 MOL     -0.524133
     23 C9          6.4150   -4.0970    1.4290 c3        1 MOL     -0.117765
     24 C10         7.9040   -4.1170    1.9210 c3        1 MOL      0.182721
     25 C11         8.1820   -4.8740    3.2330 c3        1 MOL     -0.055562
     26 C12         9.6390   -4.5680    3.6810 c3        1 MOL     -0.033808
     27 N3          9.8230   -4.7150    5.1710 n4        1 MOL     -0.229387
     28 H8          6.7450   -1.5650    0.7050 hn        1 MOL      0.227157
     29 H9          6.8010   -4.0320   -0.7860 h1        1 MOL      0.144612
     30 H10         5.9370   -5.0720    1.4340 hc        1 MOL      0.057031
     31 H11         5.8350   -3.5000    2.1310 hc        1 MOL      0.057031
     32 H12         8.1980   -3.0870    2.1530 hc        1 MOL     -0.017072
     33 H13         8.5840   -4.4530    1.1340 hc        1 MOL     -0.017072
     34 H14         8.0940   -5.9310    2.9670 hc        1 MOL      0.024160
     35 H15         7.3200   -4.6230    3.8500 hc        1 MOL      0.024160
     36 H16         9.8430   -3.5410    3.3990 hx        1 MOL      0.100696
     37 H17        10.2290   -5.3150    3.1460 hx        1 MOL      0.100696
     38 H18        10.7690   -4.5650    5.4920 hn        1 MOL      0.256577
     39 H19         9.0780   -4.1430    5.5400 hn        1 MOL      0.256577
     40 H20         9.6790   -5.6910    5.4110 hn        1 MOL      0.256577
     41 N4          3.7950   -2.9420   -0.2730 n         1 MOL     -0.372631
     42 C13         3.7770   -1.7640    0.6030 c3        1 MOL      0.203162
     43 C14         3.8710   -0.4440   -0.1510 c         1 MOL      0.224773
     44 O6          3.7310   -0.3680   -1.3760 o         1 MOL     -0.416409
     45 C15         2.5460   -1.8490    1.4750 c3        1 MOL     -0.407529
     46 C16         1.2580   -2.0420    0.8400 c         1 MOL      0.710351
     47 O7          0.9250   -1.2980   -0.0360 o         1 MOL     -0.669877
     48 O8          0.5100   -3.0080    1.2000 o         1 MOL     -0.669877
     49 H21         2.8800   -3.1170   -0.6480 hn        1 MOL      0.359117
     50 H22         4.6000   -1.7300    1.3040 h1        1 MOL      0.068222
     51 H23         2.3920   -0.9780    2.1190 hc        1 MOL      0.090808
     52 H24         2.7140   -2.6400    2.2100 hc        1 MOL      0.090808
     53 N5          3.9340    0.6490    0.6610 n         1 MOL     -0.187377
     54 C17         4.0410    2.0140    0.1790 c3        1 MOL     -0.109534
     55 C18         2.8060    2.6430   -0.5150 c         1 MOL      0.593145
     56 O9          1.8170    1.8960   -0.6610 o         1 MOL     -0.520565
     57 H25         3.7920    0.5100    1.6540 hn        1 MOL      0.232732
     58 H26         4.9390    2.0200   -0.4430 h1        1 MOL      0.069559
     59 H27         4.2130    2.5970    1.0870 h1        1 MOL      0.069559
     60 N6          2.8080    3.9200   -0.9710 n         1 MOL     -0.507285
     61 C19         1.8320    4.6040   -1.7430 c3        1 MOL      0.571738
     62 C20         2.1960    6.0570   -1.8630 c         1 MOL      0.292155
     63 O10         3.3610    6.3670   -1.6400 o         1 MOL     -0.509277
     64 C21         1.8380    4.1200   -3.1540 c3        1 MOL     -0.276002
     65 C22         1.1850    2.7710   -3.3640 c         1 MOL      0.610556
     66 O11         0.1750    2.4900   -2.7170 o         1 MOL     -0.657772
     67 O12         1.7610    1.9860   -4.1530 o         1 MOL     -0.657772
     68 H28         3.6590    4.4420   -0.7660 hn        1 MOL      0.248399
     69 H29         0.8260    4.4150   -1.3590 h1        1 MOL     -0.070056
     70 H30         2.8670    3.9820   -3.4620 hc        1 MOL      0.065995
     71 H31         1.3670    4.9060   -3.7440 hc        1 MOL      0.065995
     72 N7          1.3250    7.0890   -2.0640 n         1 MOL     -0.360822
     73 C23        -0.1220    7.0030   -2.2660 c3        1 MOL     -0.107400
     74 C24        -0.9130    6.4720   -1.0900 c         1 MOL      0.550889
     75 O13        -0.8950    6.9700    0.0140 o         1 MOL     -0.512075
     76 H32         1.7390    8.0080   -1.9820 hn        1 MOL      0.307836
     77 H33        -0.1900    6.2830   -3.0770 h1        1 MOL      0.088208
     78 H34        -0.4730    7.9160   -2.7360 h1        1 MOL      0.088208
     79 N8         -1.8550    5.5400   -1.3140 n         1 MOL     -0.385923
     80 C25        -2.5690    4.8350   -0.3160 c3        1 MOL     -0.136899
     81 C26        -1.6060    3.9310    0.4360 c         1 MOL      0.759595
     82 O14        -0.8120    3.2510   -0.2030 o         1 MOL     -0.665810
     83 C27        -3.7100    3.9840   -0.9470 c3        1 MOL      0.446613
     84 C28        -4.7650    4.8240   -1.5880 c3        1 MOL     -0.427089
     85 O15        -4.3510    3.1240   -0.0180 oh        1 MOL     -0.687360
     86 H35        -2.0050    5.3220   -2.2810 hn        1 MOL      0.225380
     87 H36        -2.9780    5.5890    0.3340 h1        1 MOL      0.094704
     88 H37        -3.3110    3.3440   -1.7180 h1        1 MOL      0.035457
     89 H38        -5.3010    3.0870   -0.1360 ho        1 MOL      0.422197
     90 H39        -4.9750    5.7030   -0.9780 hc        1 MOL      0.112308
     91 H40        -4.3160    5.2950   -2.4580 hc        1 MOL      0.112308
     92 H41        -5.6360    4.2510   -1.9120 hc        1 MOL      0.112308
     93 N9         -1.7590    3.8090    1.7240 n         1 MOL     -0.481969
     94 C29        -1.0220    2.9310    2.6300 c3        1 MOL      0.047966
     95 C30        -1.2090    1.4540    2.2410 c         1 MOL      0.307339
     96 O16        -0.5750    0.9310    1.3360 o         1 MOL     -0.526924
     97 C31         0.5180    3.2620    2.7660 c3        1 MOL      0.206242
     98 C32         0.6940    4.7750    3.2260 c3        1 MOL      0.092438
     99 C33         1.3730    2.2850    3.5260 c3        1 MOL     -0.439535
    100 C34         2.0260    5.3860    2.7670 c3        1 MOL     -0.144204
    101 H42        -2.5890    4.2710    2.0520 hn        1 MOL      0.259576
    102 H43        -1.4590    3.0190    3.6310 h1        1 MOL      0.045465
    103 H44         0.8520    3.2790    1.7230 hc        1 MOL      0.038383
    104 H45         0.5640    4.7170    4.3050 hc        1 MOL     -0.042738
    105 H46        -0.1490    5.3140    2.7910 hc        1 MOL     -0.042738
    106 H47         1.0550    1.2900    3.2040 hc        1 MOL      0.113365
    107 H48         2.4030    2.5000    3.2500 hc        1 MOL      0.113365
    108 H49         1.3820    2.3680    4.6130 hc        1 MOL      0.113365
    109 H50         2.0060    5.4200    1.6770 hc        1 MOL      0.032182
    110 H51         2.1050    6.3910    3.1840 hc        1 MOL      0.032182
    111 H52         2.9050    4.8040    3.0470 hc        1 MOL      0.032182
    112 N10        -2.1030    0.8260    3.0580 n         1 MOL     -0.096304
    113 C35        -2.4950   -0.6030    3.0070 c3        1 MOL     -0.111061
    114 C36        -3.9550   -1.0190    3.1950 c         1 MOL      0.549872
    115 O17        -4.3350   -2.1820    3.5010 o         1 MOL     -0.566628
    116 C37        -1.6040   -1.5180    3.8510 c3        1 MOL      0.363895
    117 C38        -1.6280   -1.1270    5.3420 c3        1 MOL     -0.298795
    118 O18        -0.2850   -1.2710    3.3110 oh        1 MOL     -0.544269
    119 H53        -2.4150    1.3390    3.8790 hn        1 MOL      0.187135
    120 H54        -2.2020   -0.9670    2.0200 h1        1 MOL      0.093790
    121 H55        -1.9250   -2.5540    3.7820 h1        1 MOL      0.042280
    122 H56        -0.2280   -1.9090    2.5860 ho        1 MOL      0.288106
    123 H57        -1.2030   -1.9390    5.9430 hc        1 MOL      0.069693
    124 H58        -1.1550   -0.1640    5.5030 hc        1 MOL      0.069693
    125 H59        -2.6480   -1.1210    5.7250 hc        1 MOL      0.069693
    126 N11        -4.8140   -0.0050    3.1090 n         1 MOL     -0.492885
    127 C39        -6.2870   -0.1800    3.2760 c3        1 MOL      0.363331
    128 C40        -6.9060   -0.8250    1.9770 c         1 MOL      0.428569
    129 O19        -7.5610   -0.1690    1.2140 o         1 MOL     -0.530245
    130 C41        -6.9450    1.1100    3.7780 c3        1 MOL      0.322847
    131 C42        -8.4350    0.8960    4.0470 c3        1 MOL     -0.456497
    132 O20        -6.3350    1.5750    4.9550 oh        1 MOL     -0.620889
    133 H60        -4.4460    0.8310    2.6750 hn        1 MOL      0.205939
    134 H61        -6.4720   -0.9130    4.0650 h1        1 MOL      0.022787
    135 H62        -6.8940    1.8410    2.9690 h1        1 MOL     -0.022306
    136 H63        -6.7730    2.4170    5.0420 ho        1 MOL      0.404110
    137 H64        -8.9550    0.2440    3.3420 hc        1 MOL      0.112091
    138 H65        -8.5110    0.3710    5.0000 hc        1 MOL      0.112091
    139 H66        -8.9310    1.8660    4.0730 hc        1 MOL      0.112091
    140 N12        -6.7190   -2.1370    1.7780 n         1 MOL     -0.639561
    141 C43        -6.5400   -2.7080    0.4430 c3        1 MOL      0.320300
    142 C44        -5.3080   -2.2990   -0.3320 c         1 MOL      0.453975
    143 O21        -4.7060   -1.3010   -0.0140 o         1 MOL     -0.462537
    144 C45        -7.7950   -2.6960   -0.4670 c3        1 MOL     -0.133314
    145 C46        -9.1040   -3.3800   -0.0120 c3        1 MOL      0.025475
    146 C47       -10.1700   -3.5570   -1.1390 c3        1 MOL     -0.143573
    147 C48       -10.4990   -2.3790   -2.0270 c3        1 MOL      0.142061
    148 N13       -11.7390   -1.6820   -1.4460 n4        1 MOL     -0.426567
    149 H67        -6.1120   -2.5620    2.4600 hn        1 MOL      0.332720
    150 H68        -6.4470   -3.7720    0.6410 h1        1 MOL      0.025529
    151 H69        -7.5510   -3.1680   -1.4220 hc        1 MOL      0.052880
    152 H70        -8.0190   -1.6510   -0.7000 hc        1 MOL      0.052880
    153 H71        -9.5750   -2.7940    0.7700 hc        1 MOL      0.023015
    154 H72        -8.8280   -4.3210    0.4800 hc        1 MOL      0.023015
    155 H73       -11.0800   -3.9910   -0.7330 hc        1 MOL      0.056930
    156 H74        -9.6600   -4.2520   -1.8020 hc        1 MOL      0.056930
    157 H75       -10.7270   -2.8390   -2.9830 hx        1 MOL      0.067777
    158 H76        -9.6370   -1.7200   -2.1460 hx        1 MOL      0.067777
    159 H77       -12.4770   -2.3660   -1.3720 hn        1 MOL      0.292428
    160 H78       -11.3720   -1.3980   -0.5390 hn        1 MOL      0.292428
    161 H79       -12.0210   -0.9240   -2.0370 hn        1 MOL      0.292428
    162 N14        -4.8220   -3.1070   -1.2950 n         1 MOL     -0.637844
    163 C49        -3.6170   -2.7980   -2.1160 c3        1 MOL      0.233120
    164 C50        -2.2520   -2.7100   -1.3970 c         1 MOL      0.294447
    165 O22        -1.6370   -1.6720   -1.5900 o         1 MOL     -0.593584
    166 C51        -3.4180   -3.7570   -3.3070 c3        1 MOL      0.058345
    167 C52        -4.6380   -4.0060   -4.2320 c3        1 MOL     -0.167010
    168 C53        -4.2800   -4.8440   -5.4510 c         1 MOL      0.737238
    169 O23        -4.1760   -4.3610   -6.5490 o         1 MOL     -0.649248
    170 O24        -4.1050   -6.0930   -5.2650 o         1 MOL     -0.649248
    171 H80        -5.3360   -3.9620   -1.4660 hn        1 MOL      0.347074
    172 H81        -3.9400   -1.8160   -2.4520 h1        1 MOL      0.113803
    173 H82        -3.2210   -4.7680   -2.9480 hc        1 MOL      0.030808
    174 H83        -2.5780   -3.5610   -3.9730 hc        1 MOL      0.030808
    175 H84        -4.9810   -3.0230   -4.5570 hc        1 MOL     -0.033411
    176 H85        -5.4170   -4.5370   -3.6700 hc        1 MOL     -0.033411
    177 N15        -1.7430   -3.4990   -0.4510 n         1 MOL     -0.192932
    178 C54        -2.3550   -4.7650    0.0490 c3        1 MOL     -0.090568
    179 H86        -3.3200   -4.9160   -0.4340 h1        1 MOL      0.049599
    180 H87        -1.6980   -5.6030   -0.1830 h1        1 MOL      0.049599
    181 H88        -2.4950   -4.7010    1.1280 h1        1 MOL      0.049599
    182 H89        -0.8290   -3.2630   -0.0890 hn        1 MOL      0.293852
    183 Ca1        -0.3190    0.5060   -1.1610 Ca        1 MOL      1.842496
    184 O25        -1.6140    0.5420   -3.6970 oh        1 MOL     -0.925127
    185 H90        -0.9080    1.0100   -4.1580 ho        1 MOL      0.428211
    186 H91        -2.2540    0.3460   -4.3780 ho        1 MOL      0.428211
    187 O26        -2.8900    0.8780   -0.5050 oh        1 MOL     -0.925127
    188 H92        -3.5170    1.5820   -0.4150 ho        1 MOL      0.428211
    189 H93        -3.3980    0.0760   -0.3530 ho        1 MOL      0.428211
    190 O27         1.6270   -0.3000   -2.8570 oh        1 MOL     -0.925127
    191 H94         2.4950   -0.3670   -2.4600 ho        1 MOL      0.428211
    192 H95         1.6910    0.4570   -3.4400 ho        1 MOL      0.428211
@<TRIPOS>BOND
     1    1    2 1   
     2    1    4 1   
     3    1    5 1   
     4    1    6 1   
     5    2    3 2   
     6    2    7 1   
     7    7    8 1   
     8    7   15 1   
     9    8    9 1   
    10    8   11 1   
    11    8   16 1   
    12    9   10 2   
    13    9   19 1   
    14   11   12 1   
    15   11   17 1   
    16   11   18 1   
    17   12   13 1   
    18   12   14 1   
    19   19   20 1   
    20   19   28 1   
    21   20   21 1   
    22   20   23 1   
    23   20   29 1   
    24   21   22 2   
    25   21   41 1   
    26   23   24 1   
    27   23   30 1   
    28   23   31 1   
    29   24   25 1   
    30   24   32 1   
    31   24   33 1   
    32   25   26 1   
    33   25   34 1   
    34   25   35 1   
    35   26   27 1   
    36   26   36 1   
    37   26   37 1   
    38   27   38 1   
    39   27   39 1   
    40   27   40 1   
    41   41   42 1   
    42   41   49 1   
    43   42   43 1   
    44   42   45 1   
    45   42   50 1   
    46   43   44 2   
    47   43   53 1   
    48   45   46 1   
    49   45   51 1   
    50   45   52 1   
    51   46   47 1   
    52   46   48 1   
    53   53   54 1   
    54   53   57 1   
    55   54   55 1   
    56   54   58 1   
    57   54   59 1   
    58   55   56 2   
    59   55   60 1   
    60   60   61 1   
    61   60   68 1   
    62   61   62 1   
    63   61   64 1   
    64   61   69 1   
    65   62   63 2   
    66   62   72 1   
    67   64   65 1   
    68   64   70 1   
    69   64   71 1   
    70   65   66 1   
    71   65   67 1   
    72   72   73 1   
    73   72   76 1   
    74   73   74 1   
    75   73   77 1   
    76   73   78 1   
    77   74   75 2   
    78   74   79 1   
    79   79   80 1   
    80   79   86 1   
    81   80   81 1   
    82   80   83 1   
    83   80   87 1   
    84   81   82 2   
    85   81   93 1   
    86   83   84 1   
    87   83   85 1   
    88   83   88 1   
    89   84   90 1   
    90   84   91 1   
    91   84   92 1   
    92   85   89 1   
    93   93   94 1   
    94   93  101 1   
    95   94   95 1   
    96   94   97 1   
    97   94  102 1   
    98   95   96 2   
    99   95  112 1   
   100   97   98 1   
   101   97   99 1   
   102   97  103 1   
   103   98  100 1   
   104   98  104 1   
   105   98  105 1   
   106   99  106 1   
   107   99  107 1   
   108   99  108 1   
   109  100  109 1   
   110  100  110 1   
   111  100  111 1   
   112  112  113 1   
   113  112  119 1   
   114  113  114 1   
   115  113  116 1   
   116  113  120 1   
   117  114  115 2   
   118  114  126 1   
   119  116  117 1   
   120  116  118 1   
   121  116  121 1   
   122  117  123 1   
   123  117  124 1   
   124  117  125 1   
   125  118  122 1   
   126  126  127 1   
   127  126  133 1   
   128  127  128 1   
   129  127  130 1   
   130  127  134 1   
   131  128  129 2   
   132  128  140 1   
   133  130  131 1   
   134  130  132 1   
   135  130  135 1   
   136  131  137 1   
   137  131  138 1   
   138  131  139 1   
   139  132  136 1   
   140  140  141 1   
   141  140  149 1   
   142  141  142 1   
   143  141  144 1   
   144  141  150 1   
   145  142  143 2   
   146  142  162 1   
   147  144  145 1   
   148  144  151 1   
   149  144  152 1   
   150  145  146 1   
   151  145  153 1   
   152  145  154 1   
   153  146  147 1   
   154  146  155 1   
   155  146  156 1   
   156  147  148 1   
   157  147  157 1   
   158  147  158 1   
   159  148  159 1   
   160  148  160 1   
   161  148  161 1   
   162  162  163 1   
   163  162  171 1   
   164  163  164 1   
   165  163  166 1   
   166  163  172 1   
   167  164  165 2   
   168  164  177 1   
   169  166  167 1   
   170  166  173 1   
   171  166  174 1   
   172  167  168 1   
   173  167  175 1   
   174  167  176 1   
   175  168  169 1   
   176  168  170 1   
   177  177  178 1   
   178  177  182 1   
   179  178  179 1   
   180  178  180 1   
   181  178  181 1   
   182  184  185 1   
   183  184  186 1   
   184  187  188 1   
   185  187  189 1   
   186  190  191 1   
   187  190  192 1   
@<TRIPOS>SUBSTRUCTURE
     1 MOL         1 TEMP              0 ****  ****    0 ROOT
