@<TRIPOS>MOLECULE
MOL
  192   187     1     0     0
SMALL
resp


@<TRIPOS>ATOM
      1 C1          9.2870    0.8120    1.9000 c3        1 MOL     -0.408254
      2 C2          8.0250    0.3700    1.1290 c         1 MOL      0.736754
      3 O1          6.9100    0.2150    1.6270 o         1 MOL     -0.675115
      4 H1          9.6750    1.7320    1.4630 hc        1 MOL      0.101068
      5 H2          9.0330    0.9860    2.9450 hc        1 MOL      0.101068
      6 H3         10.0450    0.0320    1.8350 hc        1 MOL      0.101068
      7 N1          8.2630    0.1520   -0.1540 n         1 MOL     -0.504500
      8 C3          7.3160   -0.2260   -1.2040 c3        1 MOL     -0.074972
      9 C4          6.9250   -1.7880   -1.1580 c         1 MOL      0.495606
     10 O2          6.7830   -2.4530   -2.1630 o         1 MOL     -0.419016
     11 C5          7.7780    0.3800   -2.5670 c3        1 MOL     -0.256957
     12 C6          9.1390   -0.2350   -2.9910 c         1 MOL      0.741928
     13 O3          9.7490   -1.1070   -2.3210 o         1 MOL     -0.644087
     14 O4          9.6200    0.1320   -4.0840 o         1 MOL     -0.644087
     15 H4          9.2610    0.1490   -0.3620 hn        1 MOL      0.268870
     16 H5          6.3780    0.2700   -0.9630 h1        1 MOL      0.188370
     17 H6          7.8320    1.4620   -2.4810 hc        1 MOL      0.088257
     18 H7          6.9830    0.1450   -3.2800 hc        1 MOL      0.088257
     19 N2          6.6360   -2.3500    0.0690 n         1 MOL     -0.456725
     20 C7          6.1850   -3.6480    0.2960 c3        1 MOL      0.285766
     21 C8          4.7600   -3.9640   -0.2530 c         1 MOL      0.328419
     22 O5          4.4750   -5.0090   -0.8640 o         1 MOL     -0.508352
     23 C9          6.3500   -4.1300    1.7130 c3        1 MOL     -0.243707
     24 C10         7.8640   -4.0640    2.1600 c3        1 MOL      0.016921
     25 C11         7.9750   -4.7240    3.4500 c3        1 MOL      0.229383
     26 C12         9.3960   -4.6690    3.9100 c3        1 MOL     -0.205855
     27 N3          9.5100   -4.7040    5.3420 n4        1 MOL     -0.120836
     28 H8          6.8150   -1.6850    0.8130 hn        1 MOL      0.237066
     29 H9          6.7890   -4.2630   -0.3780 h1        1 MOL      0.044785
     30 H10         6.0300   -5.1610    1.6480 hc        1 MOL      0.064921
     31 H11         5.7950   -3.5700    2.4720 hc        1 MOL      0.064921
     32 H12         8.3220   -3.0720    2.2090 hc        1 MOL      0.009411
     33 H13         8.5270   -4.6130    1.4870 hc        1 MOL      0.009411
     34 H14         7.6850   -5.7690    3.4290 hc        1 MOL     -0.024640
     35 H15         7.2730   -4.2770    4.1530 hc        1 MOL     -0.024640
     36 H16         9.6910   -3.6830    3.5610 hx        1 MOL      0.126158
     37 H17         9.8930   -5.5590    3.5010 hx        1 MOL      0.126158
     38 H18        10.4520   -4.6710    5.6920 hn        1 MOL      0.219150
     39 H19         9.0910   -3.8670    5.7220 hn        1 MOL      0.219150
     40 H20         9.1880   -5.5540    5.7780 hn        1 MOL      0.219150
     41 N4          3.7670   -3.0180   -0.1110 n         1 MOL     -0.236545
     42 C13         3.7140   -1.7780    0.6550 c3        1 MOL     -0.010051
     43 C14         3.8350   -0.4910   -0.1220 c         1 MOL      0.022524
     44 O6          3.6940   -0.5290   -1.3630 o         1 MOL     -0.355195
     45 C15         2.4360   -1.7470    1.5240 c3        1 MOL     -0.286225
     46 C16         1.0870   -1.9710    0.8310 c         1 MOL      0.694073
     47 O7          0.8130   -1.4010   -0.2830 o         1 MOL     -0.635748
     48 O8          0.3560   -2.8840    1.3600 o         1 MOL     -0.635748
     49 H21         2.9260   -3.3720   -0.5440 hn        1 MOL      0.309405
     50 H22         4.4780   -1.8100    1.4270 h1        1 MOL      0.132767
     51 H23         2.4210   -0.8610    2.1660 hc        1 MOL      0.064548
     52 H24         2.5630   -2.6000    2.1930 hc        1 MOL      0.064548
     53 N5          3.9880    0.6530    0.5340 n         1 MOL     -0.022816
     54 C17         4.1610    2.0570   -0.0180 c3        1 MOL     -0.198320
     55 C18         2.8960    2.6260   -0.7610 c         1 MOL      0.682037
     56 O9          1.7680    2.0370   -0.7920 o         1 MOL     -0.577364
     57 H25         3.9020    0.6410    1.5360 hn        1 MOL      0.206071
     58 H26         4.8860    2.0330   -0.8310 h1        1 MOL      0.096527
     59 H27         4.6050    2.6970    0.7380 h1        1 MOL      0.096527
     60 N6          3.1060    3.8370   -1.2250 n         1 MOL     -0.611283
     61 C19         2.1920    4.7470   -1.9090 c3        1 MOL      0.319396
     62 C20         2.5570    6.2800   -1.8110 c         1 MOL      0.348292
     63 O10         3.7390    6.7540   -1.7690 o         1 MOL     -0.522979
     64 C21         1.9100    4.3090   -3.3710 c3        1 MOL     -0.124873
     65 C22         1.2280    2.9080   -3.5770 c         1 MOL      0.638285
     66 O11         0.0900    2.6330   -3.1470 o         1 MOL     -0.663187
     67 O12         1.7330    2.2320   -4.4820 o         1 MOL     -0.663187
     68 H28         4.0790    4.1140   -1.2520 hn        1 MOL      0.314265
     69 H29         1.1970    4.5930   -1.4810 h1        1 MOL      0.028290
     70 H30         2.8550    4.3510   -3.9030 hc        1 MOL      0.042709
     71 H31         1.3070    5.0330   -3.9070 hc        1 MOL      0.042709
     72 N7          1.6300    7.2100   -1.9010 n         1 MOL     -0.357126
     73 C23         0.1330    7.0980   -2.1010 c3        1 MOL     -0.195591
     74 C24        -0.6170    6.4860   -0.8830 c         1 MOL      0.624931
     75 O13        -0.1900    6.7800    0.2600 o         1 MOL     -0.514149
     76 H32         1.9130    8.1780   -1.8300 hn        1 MOL      0.317075
     77 H33        -0.0120    6.5420   -3.0250 h1        1 MOL      0.114659
     78 H34        -0.2200    8.1120   -2.3050 h1        1 MOL      0.114659
     79 N8         -1.6960    5.6830   -1.0920 n         1 MOL     -0.659299
     80 C25        -2.4350    4.9390   -0.0670 c3        1 MOL      0.089300
     81 C26        -1.5750    3.8020    0.4670 c         1 MOL      0.721222
     82 O14        -0.8180    3.1340   -0.3570 o         1 MOL     -0.682174
     83 C27        -3.8300    4.4880   -0.6260 c3        1 MOL      0.264654
     84 C28        -4.6540    3.8120    0.4560 c3        1 MOL     -0.281626
     85 O15        -3.7590    3.5220   -1.7150 oh        1 MOL     -0.561436
     86 H35        -1.9620    5.5290   -2.0470 hn        1 MOL      0.322193
     87 H36        -2.6740    5.5840    0.7790 h1        1 MOL      0.054516
     88 H37        -4.3580    5.4010   -0.8650 h1        1 MOL      0.026367
     89 H38        -3.1090    3.8160   -2.3520 ho        1 MOL      0.371473
     90 H39        -5.5850    3.4610    0.0070 hc        1 MOL      0.083683
     91 H40        -4.0760    2.9660    0.8320 hc        1 MOL      0.083683
     92 H41        -4.7600    4.5030    1.3000 hc        1 MOL      0.083683
     93 N9         -1.6090    3.6490    1.7870 n         1 MOL     -0.465904
     94 C29        -0.8480    2.7200    2.6060 c3        1 MOL      0.041323
     95 C30        -1.2170    1.2280    2.2270 c         1 MOL      0.328164
     96 O16        -0.8090    0.7050    1.1730 o         1 MOL     -0.532419
     97 C31         0.6960    3.0270    2.5830 c3        1 MOL      0.158617
     98 C32         1.0610    4.4380    3.0330 c3        1 MOL     -0.275314
     99 C33         1.4280    1.9720    3.4350 c3        1 MOL     -0.458683
    100 C34         0.9130    4.6880    4.5280 c3        1 MOL     -0.149772
    101 H42        -2.2180    4.2620    2.3050 hn        1 MOL      0.270176
    102 H43        -1.1700    2.9130    3.6280 h1        1 MOL      0.072577
    103 H44         0.9770    2.8760    1.5420 hc        1 MOL      0.029734
    104 H45         0.5100    5.1650    2.4410 hc        1 MOL      0.123594
    105 H46         2.1450    4.4450    2.9180 hc        1 MOL      0.123594
    106 H47         1.2360    1.0200    2.9380 hc        1 MOL      0.133743
    107 H48         2.4500    2.2990    3.6090 hc        1 MOL      0.133743
    108 H49         0.8970    1.9200    4.3920 hc        1 MOL      0.133743
    109 H50        -0.0990    4.7350    4.9300 hc        1 MOL      0.044620
    110 H51         1.4280    3.9170    5.0880 hc        1 MOL      0.044620
    111 H52         1.3700    5.6680    4.7000 hc        1 MOL      0.044620
    112 N10        -1.9720    0.5790    3.0940 n         1 MOL     -0.205352
    113 C35        -2.3970   -0.8430    3.0490 c3        1 MOL      0.061658
    114 C36        -3.9190   -0.9500    3.1750 c         1 MOL      0.307519
    115 O17        -4.5130   -1.9540    3.5720 o         1 MOL     -0.531999
    116 C37        -1.6560   -1.6420    4.0900 c3        1 MOL      0.505489
    117 C38        -1.7480   -1.0420    5.4610 c3        1 MOL     -0.334678
    118 O18        -0.3120   -1.6680    3.6830 oh        1 MOL     -0.632063
    119 H53        -2.2450    1.0590    3.9340 hn        1 MOL      0.185499
    120 H54        -2.0880   -1.2640    2.0830 h1        1 MOL      0.042272
    121 H55        -2.0470   -2.6530    4.1710 h1        1 MOL     -0.018449
    122 H56        -0.1770   -2.1330    2.8540 ho        1 MOL      0.331567
    123 H57        -2.7380   -0.6490    5.6970 hc        1 MOL      0.071440
    124 H58        -1.5520   -1.8260    6.1960 hc        1 MOL      0.071440
    125 H59        -1.0460   -0.2360    5.6450 hc        1 MOL      0.071440
    126 N11        -4.6710    0.0510    2.6540 n         1 MOL     -0.107590
    127 C39        -6.1410    0.0390    2.7010 c3        1 MOL     -0.019431
    128 C40        -6.6260   -0.4330    1.3040 c         1 MOL      0.282899
    129 O19        -6.7560    0.4370    0.4120 o         1 MOL     -0.492460
    130 C41        -6.7620    1.3420    3.1270 c3        1 MOL      0.489473
    131 C42        -8.2680    1.3080    3.4450 c3        1 MOL     -0.508513
    132 O20        -6.1070    1.8120    4.2780 oh        1 MOL     -0.682589
    133 H60        -4.1310    0.8420    2.3400 hn        1 MOL      0.139827
    134 H61        -6.4750   -0.7210    3.4050 h1        1 MOL      0.079224
    135 H62        -6.6680    2.1170    2.3680 h1        1 MOL     -0.006043
    136 H63        -6.7820    1.8630    4.9610 ho        1 MOL      0.402756
    137 H64        -8.3970    0.4330    4.0780 hc        1 MOL      0.120792
    138 H65        -8.5490    2.2990    3.7980 hc        1 MOL      0.120792
    139 H66        -8.8570    1.1410    2.5370 hc        1 MOL      0.120792
    140 N12        -6.7400   -1.7530    1.0610 n         1 MOL     -0.381605
    141 C43        -6.6540   -2.5470   -0.1790 c3        1 MOL      0.195114
    142 C44        -5.3910   -2.2970   -0.8960 c         1 MOL      0.404303
    143 O21        -4.8050   -1.2590   -0.6640 o         1 MOL     -0.397896
    144 C45        -7.9450   -2.5220   -1.0070 c3        1 MOL     -0.210062
    145 C46        -9.2770   -2.4970   -0.1880 c3        1 MOL      0.059722
    146 C47       -10.5820   -2.7540   -1.0260 c3        1 MOL      0.043580
    147 C48       -11.8370   -2.5380   -0.2230 c3        1 MOL      0.034812
    148 N13       -12.1080   -1.1560    0.2360 n4        1 MOL     -0.209067
    149 H67        -6.7640   -2.2910    1.9200 hn        1 MOL      0.273518
    150 H68        -6.6080   -3.5790    0.1650 h1        1 MOL      0.034468
    151 H69        -7.9170   -3.3450   -1.7120 hc        1 MOL      0.068266
    152 H70        -8.0660   -1.7090   -1.7220 hc        1 MOL      0.068266
    153 H71        -9.4030   -1.5230    0.2890 hc        1 MOL     -0.018727
    154 H72        -9.2110   -3.2330    0.6190 hc        1 MOL     -0.018727
    155 H73       -10.5010   -3.7250   -1.4960 hc        1 MOL      0.035696
    156 H74       -10.6090   -2.0330   -1.8450 hc        1 MOL      0.035696
    157 H75       -11.7530   -3.0640    0.7210 hx        1 MOL      0.053788
    158 H76       -12.6370   -2.9900   -0.8090 hx        1 MOL      0.053788
    159 H77       -11.4330   -0.8530    0.9270 hn        1 MOL      0.229387
    160 H78       -12.0780   -0.4800   -0.5220 hn        1 MOL      0.229387
    161 H79       -13.0560   -1.1550    0.5790 hn        1 MOL      0.229387
    162 N14        -4.8790   -3.2850   -1.5940 n         1 MOL     -0.354749
    163 C49        -3.5730   -3.0140   -2.3770 c3        1 MOL     -0.059026
    164 C50        -2.3060   -2.5520   -1.5010 c         1 MOL      0.281610
    165 O22        -1.5710   -1.6380   -1.8880 o         1 MOL     -0.513097
    166 C51        -3.1960   -4.2470   -3.2460 c3        1 MOL      0.288525
    167 C52        -4.2010   -4.4380   -4.4340 c3        1 MOL     -0.308890
    168 C53        -3.9060   -5.6810   -5.2680 c         1 MOL      0.634808
    169 O23        -4.2960   -6.7890   -4.8160 o         1 MOL     -0.605081
    170 O24        -3.0160   -5.6120   -6.1360 o         1 MOL     -0.605081
    171 H80        -5.3620   -4.1580   -1.7400 hn        1 MOL      0.286162
    172 H81        -3.8450   -2.2330   -3.0980 h1        1 MOL      0.098517
    173 H82        -3.2310   -5.1330   -2.6180 hc        1 MOL      0.008794
    174 H83        -2.1370   -4.1690   -3.4810 hc        1 MOL      0.008794
    175 H84        -4.1670   -3.4690   -4.9340 hc        1 MOL      0.024598
    176 H85        -5.2160   -4.4560   -4.0400 hc        1 MOL      0.024598
    177 N15        -2.0540   -3.2420   -0.3910 n         1 MOL     -0.184003
    178 C54        -2.5610   -4.5910    0.1460 c3        1 MOL     -0.023810
    179 H86        -3.4770   -4.8690   -0.3780 h1        1 MOL      0.034910
    180 H87        -1.8030   -5.3570   -0.0190 h1        1 MOL      0.034910
    181 H88        -2.7660   -4.5050    1.2120 h1        1 MOL      0.034910
    182 H89        -1.2810   -2.9230    0.1720 hn        1 MOL      0.260721
    183 Ca1        -0.3310    0.5760   -1.4190 Ca        1 MOL      1.770944
    184 O25        -2.2070    0.8260   -3.5680 oh        1 MOL     -0.817357
    185 H90        -2.9750    1.3290   -3.8150 ho        1 MOL      0.392167
    186 H91        -1.8300    0.5280   -4.4020 ho        1 MOL      0.392167
    187 O26        -3.1810    0.8270   -0.7610 oh        1 MOL     -0.817357
    188 H92        -3.8370    1.5290   -0.7980 ho        1 MOL      0.392167
    189 H93        -3.6910    0.0240   -0.7150 ho        1 MOL      0.392167
    190 O27         1.1440   -0.2730   -3.4960 oh        1 MOL     -0.817357
    191 H94         1.3590    0.6010   -3.8220 ho        1 MOL      0.392167
    192 H95         0.7980   -0.7420   -4.2530 ho        1 MOL      0.392167
@<TRIPOS>BOND
     1    1    2 1   
     2    1    4 1   
     3    1    5 1   
     4    1    6 1   
     5    2    3 2   
     6    2    7 1   
     7    7    8 1   
     8    7   15 1   
     9    8    9 1   
    10    8   11 1   
    11    8   16 1   
    12    9   10 2   
    13    9   19 1   
    14   11   12 1   
    15   11   17 1   
    16   11   18 1   
    17   12   13 1   
    18   12   14 1   
    19   19   20 1   
    20   19   28 1   
    21   20   21 1   
    22   20   23 1   
    23   20   29 1   
    24   21   22 2   
    25   21   41 1   
    26   23   24 1   
    27   23   30 1   
    28   23   31 1   
    29   24   25 1   
    30   24   32 1   
    31   24   33 1   
    32   25   26 1   
    33   25   34 1   
    34   25   35 1   
    35   26   27 1   
    36   26   36 1   
    37   26   37 1   
    38   27   38 1   
    39   27   39 1   
    40   27   40 1   
    41   41   42 1   
    42   41   49 1   
    43   42   43 1   
    44   42   45 1   
    45   42   50 1   
    46   43   44 2   
    47   43   53 1   
    48   45   46 1   
    49   45   51 1   
    50   45   52 1   
    51   46   47 1   
    52   46   48 1   
    53   53   54 1   
    54   53   57 1   
    55   54   55 1   
    56   54   58 1   
    57   54   59 1   
    58   55   56 2   
    59   55   60 1   
    60   60   61 1   
    61   60   68 1   
    62   61   62 1   
    63   61   64 1   
    64   61   69 1   
    65   62   63 2   
    66   62   72 1   
    67   64   65 1   
    68   64   70 1   
    69   64   71 1   
    70   65   66 1   
    71   65   67 1   
    72   72   73 1   
    73   72   76 1   
    74   73   74 1   
    75   73   77 1   
    76   73   78 1   
    77   74   75 2   
    78   74   79 1   
    79   79   80 1   
    80   79   86 1   
    81   80   81 1   
    82   80   83 1   
    83   80   87 1   
    84   81   82 2   
    85   81   93 1   
    86   83   84 1   
    87   83   85 1   
    88   83   88 1   
    89   84   90 1   
    90   84   91 1   
    91   84   92 1   
    92   85   89 1   
    93   93   94 1   
    94   93  101 1   
    95   94   95 1   
    96   94   97 1   
    97   94  102 1   
    98   95   96 2   
    99   95  112 1   
   100   97   98 1   
   101   97   99 1   
   102   97  103 1   
   103   98  100 1   
   104   98  104 1   
   105   98  105 1   
   106   99  106 1   
   107   99  107 1   
   108   99  108 1   
   109  100  109 1   
   110  100  110 1   
   111  100  111 1   
   112  112  113 1   
   113  112  119 1   
   114  113  114 1   
   115  113  116 1   
   116  113  120 1   
   117  114  115 2   
   118  114  126 1   
   119  116  117 1   
   120  116  118 1   
   121  116  121 1   
   122  117  123 1   
   123  117  124 1   
   124  117  125 1   
   125  118  122 1   
   126  126  127 1   
   127  126  133 1   
   128  127  128 1   
   129  127  130 1   
   130  127  134 1   
   131  128  129 2   
   132  128  140 1   
   133  130  131 1   
   134  130  132 1   
   135  130  135 1   
   136  131  137 1   
   137  131  138 1   
   138  131  139 1   
   139  132  136 1   
   140  140  141 1   
   141  140  149 1   
   142  141  142 1   
   143  141  144 1   
   144  141  150 1   
   145  142  143 2   
   146  142  162 1   
   147  144  145 1   
   148  144  151 1   
   149  144  152 1   
   150  145  146 1   
   151  145  153 1   
   152  145  154 1   
   153  146  147 1   
   154  146  155 1   
   155  146  156 1   
   156  147  148 1   
   157  147  157 1   
   158  147  158 1   
   159  148  159 1   
   160  148  160 1   
   161  148  161 1   
   162  162  163 1   
   163  162  171 1   
   164  163  164 1   
   165  163  166 1   
   166  163  172 1   
   167  164  165 2   
   168  164  177 1   
   169  166  167 1   
   170  166  173 1   
   171  166  174 1   
   172  167  168 1   
   173  167  175 1   
   174  167  176 1   
   175  168  169 1   
   176  168  170 1   
   177  177  178 1   
   178  177  182 1   
   179  178  179 1   
   180  178  180 1   
   181  178  181 1   
   182  184  185 1   
   183  184  186 1   
   184  187  188 1   
   185  187  189 1   
   186  190  191 1   
   187  190  192 1   
@<TRIPOS>SUBSTRUCTURE
     1 MOL         1 TEMP              0 ****  ****    0 ROOT
