@<TRIPOS>MOLECULE
MOL
  188   182     1     0     0
SMALL
resp


@<TRIPOS>ATOM
      1 C1         -6.1910   -1.2180    3.5700 c3        1 MOL     -0.269423
      2 C2         -6.8110   -1.3100    2.1490 c         1 MOL      0.426725
      3 O1         -6.1160   -1.0930    1.1770 o         1 MOL     -0.395907
      4 H1         -6.6350   -1.9800    4.2100 hc        1 MOL      0.076430
      5 H2         -5.1140   -1.3780    3.5090 hc        1 MOL      0.076430
      6 H3         -6.3880   -0.2310    3.9900 hc        1 MOL      0.076430
      7 N1         -8.1380   -1.6120    1.9790 n         1 MOL     -0.386164
      8 C3         -8.8510   -1.7240    0.7280 c3        1 MOL      0.119902
      9 C4         -8.5700   -0.6190   -0.2990 c         1 MOL      0.259061
     10 O2         -8.3720   -0.9420   -1.5040 o         1 MOL     -0.424778
     11 C5         -8.7370   -3.1470    0.0910 c3        1 MOL     -0.310210
     12 C6         -9.9710   -3.5030   -0.7020 c         1 MOL      0.768894
     13 O3        -11.0170   -2.7660   -0.6420 o         1 MOL     -0.690736
     14 O4        -10.0100   -4.5620   -1.3000 o         1 MOL     -0.690736
     15 H4         -8.6060   -1.5870    2.8790 hn        1 MOL      0.263832
     16 H5         -9.8630   -1.5950    1.1250 h1        1 MOL      0.032260
     17 H6         -8.6570   -3.8850    0.8900 hc        1 MOL      0.106457
     18 H7         -7.9050   -3.2400   -0.6150 hc        1 MOL      0.106457
     19 N2         -8.4730    0.6390    0.1350 n         1 MOL     -0.265721
     20 C7         -8.2410    1.8130   -0.6730 c3        1 MOL      0.078325
     21 C8         -6.7420    2.2740   -0.7890 c         1 MOL      0.476821
     22 O5         -6.4220    3.3830   -1.1710 o         1 MOL     -0.585968
     23 C9         -9.1780    2.9340   -0.1420 c3        1 MOL     -0.035270
     24 C10       -10.6720    2.7490   -0.2850 c3        1 MOL      0.280395
     25 C11       -11.4080    3.8060    0.5090 c3        1 MOL     -0.232361
     26 C12       -12.8830    3.7620    0.1670 c3        1 MOL      0.151943
     27 N3        -13.6710    4.4500    1.1920 n4        1 MOL     -0.131391
     28 H8         -8.7330    0.8460    1.0840 hn        1 MOL      0.221118
     29 H9         -8.5850    1.5580   -1.6730 h1        1 MOL      0.084060
     30 H10        -9.0230    3.8410   -0.7310 hc        1 MOL      0.004238
     31 H11        -8.9890    3.0300    0.9210 hc        1 MOL      0.004238
     32 H12       -10.9300    1.7820    0.1390 hc        1 MOL     -0.039397
     33 H13       -10.9310    2.7780   -1.3490 hc        1 MOL     -0.039397
     34 H14       -11.0410    4.7640    0.1400 hc        1 MOL      0.047551
     35 H15       -11.1680    3.7050    1.5610 hc        1 MOL      0.047551
     36 H16       -13.0770    2.6890    0.1360 hx        1 MOL      0.042970
     37 H17       -13.0430    4.1130   -0.8460 hx        1 MOL      0.042970
     38 H18       -13.3610    5.4150    1.2630 hn        1 MOL      0.183544
     39 H19       -14.6490    4.4470    0.9590 hn        1 MOL      0.183544
     40 H20       -13.4630    4.0280    2.0880 hn        1 MOL      0.183544
     41 N4         -5.7680    1.5180   -0.2580 n         1 MOL     -0.339746
     42 C13        -4.3490    1.8160   -0.2930 c3        1 MOL      0.143587
     43 C14        -3.8930    1.7950   -1.7730 c         1 MOL      0.605614
     44 O6         -3.9160    0.7360   -2.3590 o         1 MOL     -0.505496
     45 C15        -3.5610    0.8860    0.6240 c3        1 MOL     -0.274961
     46 C16        -2.0390    1.0410    0.5960 c         1 MOL      0.590554
     47 O7         -1.5180    1.4410    1.6500 o         1 MOL     -0.684587
     48 O8         -1.3510    0.8650   -0.4700 o         1 MOL     -0.684587
     49 H21        -6.0620    0.6630    0.2010 hn        1 MOL      0.178453
     50 H22        -4.2070    2.8170    0.1170 h1        1 MOL      0.001297
     51 H23        -3.8100   -0.1430    0.3700 hc        1 MOL      0.086187
     52 H24        -3.9980    0.9260    1.6170 hc        1 MOL      0.086187
     53 N5         -3.3450    2.8830   -2.3400 n         1 MOL     -0.310486
     54 C17        -2.7680    2.9810   -3.6760 c3        1 MOL     -0.149609
     55 C18        -1.7940    1.8660   -4.1230 c         1 MOL      0.465173
     56 O9         -1.5330    1.7870   -5.3170 o         1 MOL     -0.534884
     57 H25        -3.4080    3.7070   -1.7670 hn        1 MOL      0.233368
     58 H26        -2.3890    3.9840   -3.8260 h1        1 MOL      0.108525
     59 H27        -3.5750    2.9280   -4.4190 h1        1 MOL      0.108525
     60 N6         -1.1940    1.1440   -3.1800 n         1 MOL     -0.093722
     61 C19        -0.3950    0.0090   -3.5470 c3        1 MOL     -0.033018
     62 C20        -0.9380   -1.3940   -3.1840 c         1 MOL      0.463397
     63 O10        -0.2650   -2.3780   -3.3780 o         1 MOL     -0.546270
     64 C21         0.8760    0.0350   -2.6890 c3        1 MOL     -0.067927
     65 C22         1.7010    1.3350   -2.7500 c         1 MOL      0.480726
     66 N7          2.3050    1.7330   -3.8890 n         1 MOL     -0.700991
     67 O11         1.7850    2.0170   -1.7320 o         1 MOL     -0.593331
     68 H28        -1.3800    1.1860   -2.1870 hn        1 MOL     -0.003140
     69 H29        -0.0880    0.0680   -4.5950 h1        1 MOL      0.092559
     70 H30         1.5360   -0.7220   -3.1180 hc        1 MOL      0.058094
     71 H31         0.5870   -0.2110   -1.6740 hc        1 MOL      0.058094
     72 H32         2.1540    1.2850   -4.7900 hn        1 MOL      0.368736
     73 H33         2.9730    2.4940   -3.8040 hn        1 MOL      0.368736
     74 N8         -2.1630   -1.4480   -2.6980 n         1 MOL     -0.256822
     75 C23        -2.8220   -2.6760   -2.1730 c3        1 MOL     -0.099766
     76 C24        -2.2970   -3.0720   -0.7490 c         1 MOL      0.481131
     77 O12        -2.5950   -4.1270   -0.2280 o         1 MOL     -0.524778
     78 H34        -2.6600   -0.5910   -2.5280 hn        1 MOL      0.198035
     79 H35        -2.7160   -3.5320   -2.8530 h1        1 MOL      0.124703
     80 H36        -3.9120   -2.6060   -2.1560 h1        1 MOL      0.124703
     81 N9         -1.5210   -2.2150   -0.1060 n         1 MOL     -0.409435
     82 C25        -0.7310   -2.5520    1.0710 c3        1 MOL      0.003040
     83 C26         0.6540   -1.9280    1.1300 c         1 MOL      0.382098
     84 O13         0.8100   -0.7150    0.8370 o         1 MOL     -0.443475
     85 C27        -1.5260   -2.1920    2.2700 c3        1 MOL     -0.303656
     86 C28        -0.8860   -2.5130    3.6110 ca        1 MOL      0.044000
     87 C29        -0.3650   -3.8110    3.8510 ca        1 MOL     -0.155291
     88 C30        -0.8330   -1.5380    4.6350 ca        1 MOL     -0.155291
     89 C31         0.3330   -4.0690    5.0870 ca        1 MOL     -0.257928
     90 C32        -0.3090   -1.8150    5.9010 ca        1 MOL     -0.257928
     91 C33         0.3370   -3.0590    6.1110 ca        1 MOL      0.366796
     92 O14         0.8520   -3.3260    7.3720 oh        1 MOL     -0.493692
     93 H37        -1.2400   -1.3790   -0.5820 hn        1 MOL      0.387192
     94 H38        -0.6070   -3.6310    1.1660 h1        1 MOL      0.084219
     95 H39        -2.4480   -2.7630    2.2470 hc        1 MOL      0.182271
     96 H40        -1.6450   -1.1040    2.2340 hc        1 MOL      0.182271
     97 H41        -0.3040   -4.5470    3.0700 ha        1 MOL      0.138312
     98 H42        -1.2330   -0.5620    4.3850 ha        1 MOL      0.138312
     99 H43         0.8640   -4.9930    5.2330 ha        1 MOL      0.142919
    100 H44        -0.4040   -1.0060    6.6130 ha        1 MOL      0.142919
    101 H45         0.9940   -2.5240    7.8870 ho        1 MOL      0.361844
    102 N10         1.7090   -2.7220    1.3710 n         1 MOL     -0.389120
    103 C34         3.0990   -2.2250    1.1690 c3        1 MOL      0.429603
    104 C35         3.5080   -2.1170   -0.3580 c         1 MOL      0.046085
    105 O15         4.1970   -1.1890   -0.7230 o         1 MOL     -0.253272
    106 C36         4.0600   -3.1130    1.9590 c3        1 MOL      0.009443
    107 C37         3.6730   -3.4870    3.4430 c3        1 MOL     -0.082825
    108 C38         5.5750   -2.7780    1.8160 c3        1 MOL     -0.392779
    109 C39         3.7170   -2.2380    4.3940 c3        1 MOL     -0.159745
    110 H46         1.6700   -3.7030    1.6200 hn        1 MOL      0.243910
    111 H47         3.2000   -1.1940    1.5190 h1        1 MOL     -0.020584
    112 H48         3.9590   -4.0790    1.4630 hc        1 MOL     -0.052050
    113 H49         4.3080   -4.2020    3.9600 hc        1 MOL      0.076576
    114 H50         2.6820   -3.9440    3.4690 hc        1 MOL      0.076576
    115 H51         5.8520   -3.1610    0.8350 hc        1 MOL      0.124349
    116 H52         5.7410   -1.7000    1.8520 hc        1 MOL      0.124349
    117 H53         6.2150   -3.1980    2.5890 hc        1 MOL      0.124349
    118 H54         3.3600   -2.5280    5.3800 hc        1 MOL      0.031711
    119 H55         4.7670   -1.9620    4.3800 hc        1 MOL      0.031711
    120 H56         3.0440   -1.4790    3.9790 hc        1 MOL      0.031711
    121 N11         3.0230   -3.0990   -1.1440 n         1 MOL     -0.221217
    122 C40         3.3520   -3.2400   -2.5790 c3        1 MOL      0.019180
    123 C41         4.7750   -2.9670   -3.0500 c         1 MOL      0.532487
    124 O16         4.8770   -2.2260   -3.9420 o         1 MOL     -0.524008
    125 C42         3.1230   -4.7120   -3.0140 c3        1 MOL      0.016241
    126 O17         3.8500   -5.6290   -2.2320 oh        1 MOL     -0.644027
    127 H57         2.4610   -3.7960   -0.6700 hn        1 MOL      0.250012
    128 H58         2.7940   -2.5500   -3.2150 h1        1 MOL      0.043156
    129 H59         3.5230   -4.8030   -4.0270 h1        1 MOL      0.087458
    130 H60         2.0680   -4.9760   -2.9610 h1        1 MOL      0.087458
    131 H61         3.4430   -6.5010   -2.2690 ho        1 MOL      0.441362
    132 N12         5.8480   -3.4010   -2.4680 n         1 MOL     -0.222150
    133 C43         7.2530   -2.9530   -2.8560 c3        1 MOL      0.039446
    134 C44         7.5060   -1.3810   -2.9440 c         1 MOL      0.477807
    135 O18         8.4470   -0.9400   -3.6650 o         1 MOL     -0.510471
    136 C45         7.5890   -3.7640   -4.1530 c3        1 MOL     -0.315023
    137 H62         5.7140   -4.2040   -1.8680 hn        1 MOL      0.237492
    138 H63         7.9400   -3.3140   -2.0920 h1        1 MOL      0.068003
    139 H64         7.4360   -4.8250   -3.9390 hc        1 MOL      0.101065
    140 H65         6.9530   -3.4640   -4.9880 hc        1 MOL      0.101065
    141 H66         8.5830   -3.5630   -4.5600 hc        1 MOL      0.101065
    142 N13         6.7350   -0.6160   -2.1530 n         1 MOL     -0.399804
    143 C46         7.0420    0.8190   -1.9710 c3        1 MOL      0.500787
    144 C47         7.2050    1.2930   -0.4900 c         1 MOL      0.354968
    145 O19         6.6340    0.7780    0.4530 o         1 MOL     -0.523069
    146 C48         5.8860    1.6770   -2.5550 c3        1 MOL     -0.198137
    147 H67         5.9510   -0.9710   -1.6340 hn        1 MOL      0.058022
    148 H68         7.9410    1.0940   -2.5300 h1        1 MOL     -0.066859
    149 H69         5.7290    1.2140   -3.5310 hc        1 MOL      0.049446
    150 H70         5.0370    1.6210   -1.8850 hc        1 MOL      0.049446
    151 H71         6.2780    2.6700   -2.7900 hc        1 MOL      0.049446
    152 N14         7.8740    2.3870   -0.3220 n         1 MOL     -0.601980
    153 C49         8.3040    3.0370    0.9000 c3        1 MOL      0.095260
    154 C50         9.2090    2.2490    1.9010 c         1 MOL      0.426509
    155 O20         9.6170    2.7190    2.9430 o         1 MOL     -0.470165
    156 C51         7.0350    3.6710    1.5630 c3        1 MOL      0.229673
    157 C52         7.2980    4.8660    2.4690 c3        1 MOL     -0.420400
    158 C53         7.6520    6.1540    1.8200 c         1 MOL      0.818650
    159 O21         6.8020    7.0560    1.8620 o         1 MOL     -0.692250
    160 O22         8.7260    6.4610    1.3130 o         1 MOL     -0.692250
    161 H72         8.1070    2.8700   -1.1840 hn        1 MOL      0.359260
    162 H73         8.9360    3.9080    0.7070 h1        1 MOL      0.062161
    163 H74         6.5480    2.8340    2.0620 hc        1 MOL     -0.056607
    164 H75         6.4270    3.9600    0.7070 hc        1 MOL     -0.056607
    165 H76         8.1100    4.6800    3.1780 hc        1 MOL      0.084070
    166 H77         6.3870    4.9640    3.0640 hc        1 MOL      0.084070
    167 N15         9.6240    0.9900    1.5370 n         1 MOL     -0.251981
    168 C54        10.5230   -0.0140    2.2540 c3        1 MOL     -0.135908
    169 H78         9.9180   -0.6380    2.9110 h1        1 MOL      0.086532
    170 H79        11.0260   -0.6420    1.5190 h1        1 MOL      0.086532
    171 H80        11.2670    0.5200    2.8460 h1        1 MOL      0.086532
    172 H81         9.3430    0.6740    0.6170 hn        1 MOL      0.200793
    173 Ca1         0.8750    2.0700    0.7130 Ca        1 MOL      1.737068
    174 O23         2.5370    3.9840    0.5720 oh        1 MOL     -0.833328
    175 H82         2.8780    4.7470    1.0570 ho        1 MOL      0.419704
    176 H83         3.0920    3.9200   -0.1950 ho        1 MOL      0.419704
    177 O24        -0.4140    3.8610   -0.9740 oh        1 MOL     -0.833328
    178 H84         0.2820    4.3150   -1.4370 ho        1 MOL      0.419704
    179 H85        -1.2020    4.3860   -1.1490 ho        1 MOL      0.419704
    180 O25        -0.0890    4.2550    2.1960 oh        1 MOL     -0.833328
    181 H86        -0.6440    4.0270    2.9330 ho        1 MOL      0.419704
    182 H87        -0.3950    5.1150    1.9150 ho        1 MOL      0.419704
    183 O26         3.4780    1.0500    0.5220 oh        1 MOL     -0.833328
    184 H88         3.4940    0.4180   -0.1940 ho        1 MOL      0.419704
    185 H89         4.3540    1.0210    0.8880 ho        1 MOL      0.419704
    186 O27         1.1910    1.3410    3.2230 oh        1 MOL     -0.833328
    187 H90         0.6790    1.7330    3.9340 ho        1 MOL      0.419704
    188 H91         1.8940    0.8690    3.6630 ho        1 MOL      0.419704
@<TRIPOS>BOND
     1    1    2 1   
     2    1    4 1   
     3    1    5 1   
     4    1    6 1   
     5    2    3 2   
     6    2    7 1   
     7    7    8 1   
     8    7   15 1   
     9    8    9 1   
    10    8   11 1   
    11    8   16 1   
    12    9   10 2   
    13    9   19 1   
    14   11   12 1   
    15   11   17 1   
    16   11   18 1   
    17   12   13 1   
    18   12   14 1   
    19   19   20 1   
    20   19   28 1   
    21   20   21 1   
    22   20   23 1   
    23   20   29 1   
    24   21   22 2   
    25   21   41 1   
    26   23   24 1   
    27   23   30 1   
    28   23   31 1   
    29   24   25 1   
    30   24   32 1   
    31   24   33 1   
    32   25   26 1   
    33   25   34 1   
    34   25   35 1   
    35   26   27 1   
    36   26   36 1   
    37   26   37 1   
    38   27   38 1   
    39   27   39 1   
    40   27   40 1   
    41   41   42 1   
    42   41   49 1   
    43   42   43 1   
    44   42   45 1   
    45   42   50 1   
    46   43   44 2   
    47   43   53 1   
    48   45   46 1   
    49   45   51 1   
    50   45   52 1   
    51   46   47 1   
    52   46   48 1   
    53   53   54 1   
    54   53   57 1   
    55   54   55 1   
    56   54   58 1   
    57   54   59 1   
    58   55   56 2   
    59   55   60 1   
    60   60   61 1   
    61   60   68 1   
    62   61   62 1   
    63   61   64 1   
    64   61   69 1   
    65   62   63 2   
    66   62   74 1   
    67   64   65 1   
    68   64   70 1   
    69   64   71 1   
    70   65   66 1   
    71   65   67 2   
    72   66   72 1   
    73   66   73 1   
    74   74   75 1   
    75   74   78 1   
    76   75   76 1   
    77   75   79 1   
    78   75   80 1   
    79   76   77 2   
    80   76   81 1   
    81   81   82 1   
    82   81   93 1   
    83   82   83 1   
    84   82   85 1   
    85   82   94 1   
    86   83   84 2   
    87   83  102 1   
    88   85   86 1   
    89   85   95 1   
    90   85   96 1   
    91   86   87 ar  
    92   86   88 ar  
    93   87   89 ar  
    94   87   97 1   
    95   88   90 ar  
    96   88   98 1   
    97   89   91 ar  
    98   89   99 1   
    99   90   91 ar  
   100   90  100 1   
   101   91   92 1   
   102   92  101 1   
   103  102  103 1   
   104  102  110 1   
   105  103  104 1   
   106  103  106 1   
   107  103  111 1   
   108  104  105 2   
   109  104  121 1   
   110  106  107 1   
   111  106  108 1   
   112  106  112 1   
   113  107  109 1   
   114  107  113 1   
   115  107  114 1   
   116  108  115 1   
   117  108  116 1   
   118  108  117 1   
   119  109  118 1   
   120  109  119 1   
   121  109  120 1   
   122  121  122 1   
   123  121  127 1   
   124  122  123 1   
   125  122  125 1   
   126  122  128 1   
   127  123  124 2   
   128  123  132 1   
   129  125  126 1   
   130  125  129 1   
   131  125  130 1   
   132  126  131 1   
   133  132  133 1   
   134  132  137 1   
   135  133  134 1   
   136  133  136 1   
   137  133  138 1   
   138  134  135 2   
   139  134  142 1   
   140  136  139 1   
   141  136  140 1   
   142  136  141 1   
   143  142  143 1   
   144  142  147 1   
   145  143  144 1   
   146  143  146 1   
   147  143  148 1   
   148  144  145 2   
   149  144  152 1   
   150  146  149 1   
   151  146  150 1   
   152  146  151 1   
   153  152  153 1   
   154  152  161 1   
   155  153  154 1   
   156  153  156 1   
   157  153  162 1   
   158  154  155 2   
   159  154  167 1   
   160  156  157 1   
   161  156  163 1   
   162  156  164 1   
   163  157  158 1   
   164  157  165 1   
   165  157  166 1   
   166  158  159 1   
   167  158  160 1   
   168  167  168 1   
   169  167  172 1   
   170  168  169 1   
   171  168  170 1   
   172  168  171 1   
   173  174  175 1   
   174  174  176 1   
   175  177  178 1   
   176  177  179 1   
   177  180  181 1   
   178  180  182 1   
   179  183  184 1   
   180  183  185 1   
   181  186  187 1   
   182  186  188 1   
@<TRIPOS>SUBSTRUCTURE
     1 MOL         1 TEMP              0 ****  ****    0 ROOT
