@<TRIPOS>MOLECULE
MOL
  192   187     1     0     0
SMALL
resp


@<TRIPOS>ATOM
      1 C1          4.0440    3.5600   -3.7350 c3        1 MOL     -0.535995
      2 C2          4.9400    2.9900   -2.5570 c         1 MOL      0.896310
      3 O1          4.4990    2.8130   -1.4060 o         1 MOL     -0.713729
      4 H1          4.0730    2.8700   -4.5790 hc        1 MOL      0.139004
      5 H2          3.0160    3.6690   -3.3900 hc        1 MOL      0.139004
      6 H3          4.4300    4.5310   -4.0470 hc        1 MOL      0.139004
      7 N1          6.2400    2.6430   -2.8570 n         1 MOL     -0.860067
      8 C3          7.0150    1.5910   -2.0380 c3        1 MOL      0.653137
      9 C4          6.0930    0.4370   -1.6590 c         1 MOL      0.044933
     10 O2          5.7460    0.2170   -0.5020 o         1 MOL     -0.297127
     11 C5          7.9320    2.2680   -0.9220 c3        1 MOL     -0.477390
     12 C6          7.2210    3.2540    0.0160 c         1 MOL      0.919592
     13 O3          6.5750    2.8370    0.9630 o         1 MOL     -0.770061
     14 O4          7.3020    4.5310   -0.1680 o         1 MOL     -0.770061
     15 H4          6.6980    2.8810   -3.7220 hn        1 MOL      0.357101
     16 H5          7.6810    1.1340   -2.7680 h1        1 MOL     -0.043602
     17 H6          8.6590    2.7970   -1.5360 hc        1 MOL      0.076742
     18 H7          8.4710    1.5410   -0.3020 hc        1 MOL      0.076742
     19 N2          5.7110   -0.3720   -2.6970 n         1 MOL     -0.372659
     20 C7          4.9710   -1.6100   -2.6970 c3        1 MOL      0.083414
     21 C8          5.6650   -2.7080   -1.9560 c         1 MOL      0.359863
     22 O5          5.6730   -3.8290   -2.4780 o         1 MOL     -0.539772
     23 C9          3.4920   -1.4150   -2.2360 c3        1 MOL      0.279582
     24 C10         2.6780   -2.6850   -2.4560 c3        1 MOL     -0.127891
     25 C11         2.7890   -0.1960   -2.8490 c3        1 MOL     -0.233353
     26 C12         2.7330   -3.2950   -3.8120 c3        1 MOL     -0.379049
     27 H8          6.0410   -0.1490   -3.6240 hn        1 MOL      0.261637
     28 H9          4.9820   -1.9400   -3.7400 h1        1 MOL      0.039215
     29 H10         3.5710   -1.2400   -1.1650 hc        1 MOL     -0.112688
     30 H11         1.6450   -2.4320   -2.1890 hc        1 MOL      0.135535
     31 H12         2.9230   -3.4270   -1.7030 hc        1 MOL      0.135535
     32 H13         2.9000   -0.3420   -3.9170 hc        1 MOL      0.034773
     33 H14         1.7380   -0.2050   -2.5660 hc        1 MOL      0.034773
     34 H15         3.2680    0.7260   -2.5130 hc        1 MOL      0.034773
     35 H16         3.6310   -3.8950   -3.9380 hc        1 MOL      0.081165
     36 H17         1.9100   -4.0040   -3.8970 hc        1 MOL      0.081165
     37 H18         2.6430   -2.5970   -4.6370 hc        1 MOL      0.081165
     38 N3          6.2790   -2.3770   -0.8040 n         1 MOL     -0.047672
     39 C13         7.1530   -3.2630   -0.0490 c3        1 MOL     -0.029969
     40 C14         6.5800   -4.5790    0.4660 c         1 MOL      0.599525
     41 O6          7.2290   -5.6210    0.2860 o         1 MOL     -0.587906
     42 C15         7.6670   -2.5020    1.2380 c3        1 MOL     -0.151078
     43 C16         8.4920   -1.2320    0.8660 c         1 MOL      0.718925
     44 O7          9.3150   -1.3070   -0.0580 o         1 MOL     -0.686921
     45 O8          8.3200   -0.2000    1.5640 o         1 MOL     -0.686921
     46 H19         6.2950   -1.4040   -0.5180 hn        1 MOL      0.132129
     47 H20         7.9720   -3.4870   -0.7270 h1        1 MOL      0.048277
     48 H21         8.1990   -3.2370    1.8390 hc        1 MOL      0.024597
     49 H22         6.7800   -2.1940    1.7860 hc        1 MOL      0.024597
     50 N4          5.3960   -4.6870    1.1670 n         1 MOL     -0.584315
     51 C17         4.4030   -3.6280    1.4360 c3        1 MOL      0.131439
     52 C18         2.9900   -4.1790    1.6300 c         1 MOL      0.616697
     53 O9          2.7630   -5.2830    1.1390 o         1 MOL     -0.559893
     54 H23         5.1250   -5.6140    1.4810 hn        1 MOL      0.315246
     55 H24         4.3980   -2.8760    0.6380 h1        1 MOL      0.020068
     56 H25         4.6400   -3.1030    2.3560 h1        1 MOL      0.020068
     57 N5          2.0370   -3.5350    2.3740 n         1 MOL     -0.702511
     58 C19         1.9260   -2.0810    2.7600 c3        1 MOL      0.391723
     59 C20         2.2350   -1.0830    1.6460 c         1 MOL      0.140305
     60 O10         3.3630   -0.5870    1.3980 o         1 MOL     -0.629499
     61 C21         2.7100   -1.7690    4.0490 c3        1 MOL     -0.309658
     62 C22         2.5050   -0.3020    4.5120 c         1 MOL      0.729489
     63 O11         3.3510    0.2310    5.2780 o         1 MOL     -0.674214
     64 O12         1.3460    0.2090    4.2670 o         1 MOL     -0.674214
     65 H26         1.1930   -4.0460    2.6110 hn        1 MOL      0.351797
     66 H27         0.8880   -1.8740    2.9910 h1        1 MOL     -0.020110
     67 H28         3.7820   -1.7850    3.8500 hc        1 MOL      0.070762
     68 H29         2.4450   -2.4590    4.8430 hc        1 MOL      0.070762
     69 N6          1.2310   -0.5940    0.8850 n         1 MOL      0.019376
     70 C23        -0.1800   -0.9370    0.9280 c3        1 MOL     -0.169330
     71 C24        -0.4590   -2.3600    0.3970 c         1 MOL      0.585307
     72 O13         0.3280   -2.9630   -0.3250 o         1 MOL     -0.513340
     73 H30         1.4160    0.0540    0.1330 hn        1 MOL      0.156013
     74 H31        -0.6810   -0.1950    0.2980 h1        1 MOL      0.067616
     75 H32        -0.4050   -0.7890    1.9930 h1        1 MOL      0.067616
     76 N7         -1.5660   -2.9400    0.8540 n         1 MOL     -0.470513
     77 C25        -1.9280   -4.2800    0.3820 c3        1 MOL      0.100498
     78 C26        -2.6510   -4.2890   -0.9540 c         1 MOL      0.405273
     79 O14        -2.5680   -5.3630   -1.5500 o         1 MOL     -0.516341
     80 C27        -2.9730   -4.9100    1.3990 c3        1 MOL     -0.160151
     81 C28        -4.3580   -4.2230    1.5130 c3        1 MOL      0.093052
     82 C29        -5.3140   -5.0340    2.3490 c         1 MOL      0.657735
     83 N8         -6.4810   -5.3400    1.8130 n         1 MOL     -0.928400
     84 O15        -5.0520   -5.5100    3.4390 o         1 MOL     -0.581983
     85 H33        -2.1630   -2.4780    1.5250 hn        1 MOL      0.315691
     86 H34        -1.0790   -4.9730    0.4050 h1        1 MOL      0.099947
     87 H35        -2.6310   -4.9070    2.4340 hc        1 MOL      0.059338
     88 H36        -3.2080   -5.8950    1.0070 hc        1 MOL      0.059338
     89 H37        -4.8760   -3.9800    0.5890 hc        1 MOL     -0.059930
     90 H38        -4.2270   -3.2740    2.0370 hc        1 MOL     -0.059930
     91 H39        -6.5770   -5.2170    0.8230 hn        1 MOL      0.393753
     92 H40        -7.0780   -5.9290    2.3760 hn        1 MOL      0.393753
     93 N9         -3.1950   -3.1560   -1.3930 n         1 MOL     -0.103248
     94 C30        -3.6290   -3.0740   -2.8210 c3        1 MOL     -0.195124
     95 C31        -5.0760   -2.6110   -3.0390 c         1 MOL      0.471976
     96 O16        -5.7130   -2.9510   -4.0190 o         1 MOL     -0.524824
     97 C32        -2.6930   -2.1300   -3.5710 c3        1 MOL      0.165980
     98 C33        -1.3250   -2.7950   -3.7170 c3        1 MOL     -0.268324
     99 C34        -2.5700   -0.7570   -2.9080 c3        1 MOL     -0.268324
    100 H41        -3.2920   -2.3650   -0.7700 hn        1 MOL      0.086479
    101 H42        -3.5820   -4.0290   -3.3490 h1        1 MOL      0.128856
    102 H43        -3.0100   -2.0140   -4.6060 hc        1 MOL      0.022607
    103 H44        -0.9680   -2.6660   -4.7450 hc        1 MOL      0.070095
    104 H45        -0.5700   -2.3800   -3.0520 hc        1 MOL      0.070095
    105 H46        -1.3410   -3.8540   -3.4730 hc        1 MOL      0.070095
    106 H47        -2.2530   -0.8730   -1.8720 hc        1 MOL      0.070095
    107 H48        -1.6380   -0.3760   -3.3110 hc        1 MOL      0.070095
    108 H49        -3.4000   -0.0610   -3.0200 hc        1 MOL      0.070095
    109 N10        -5.5730   -1.8610   -2.0520 n         1 MOL     -0.299388
    110 C35        -7.0200   -1.4840   -2.0500 c3        1 MOL     -0.150650
    111 C36        -7.1780    0.0310   -1.6910 c         1 MOL      0.648567
    112 O17        -8.1820    0.5960   -2.0270 o         1 MOL     -0.549862
    113 C37        -7.7300   -2.4920   -1.1470 c3        1 MOL      0.029009
    114 C38        -7.6100   -3.9210   -1.4860 c         1 MOL      0.606930
    115 N11        -8.0110   -4.2750   -2.6890 n         1 MOL     -0.787863
    116 O18        -7.1340   -4.6870   -0.7030 o         1 MOL     -0.505058
    117 H50        -4.9080   -1.6410   -1.3200 hn        1 MOL      0.366097
    118 H51        -7.3540   -1.5320   -3.0900 h1        1 MOL      0.106112
    119 H52        -8.7980   -2.3360   -1.0530 hc        1 MOL     -0.003812
    120 H53        -7.2470   -2.3300   -0.1740 hc        1 MOL     -0.003812
    121 H54        -8.3220   -3.6430   -3.4230 hn        1 MOL      0.374791
    122 H55        -7.9360   -5.2500   -2.9330 hn        1 MOL      0.374791
    123 N12        -6.2430    0.7100   -0.9870 n         1 MOL     -0.564229
    124 C39        -6.3880    2.0860   -0.4130 c3        1 MOL      0.315176
    125 C40        -5.0450    2.9060   -0.2330 c         1 MOL      0.391456
    126 O19        -3.9300    2.3940   -0.1410 o         1 MOL     -0.427653
    127 C41        -7.1990    2.0670    0.9130 c3        1 MOL     -0.129027
    128 C42        -6.7040    1.0700    1.9500 ca        1 MOL      0.000317
    129 C43        -7.3330   -0.1890    2.1360 ca        1 MOL     -0.096533
    130 C44        -5.6710    1.4090    2.8610 ca        1 MOL     -0.096533
    131 C45        -6.8860   -1.0910    3.1120 ca        1 MOL     -0.320248
    132 C46        -5.2400    0.4990    3.8780 ca        1 MOL     -0.320248
    133 C47        -5.8560   -0.7300    4.0210 ca        1 MOL      0.364338
    134 O20        -5.5590   -1.5780    5.0280 oh        1 MOL     -0.413670
    135 H56        -5.3970    0.1990   -0.7920 hn        1 MOL      0.217836
    136 H57        -7.0160    2.7500   -1.0090 h1        1 MOL     -0.008982
    137 H58        -8.2060    1.6830    0.7100 hc        1 MOL      0.061782
    138 H59        -7.3760    3.0400    1.3550 hc        1 MOL      0.061782
    139 H60        -8.1920   -0.4600    1.5450 ha        1 MOL      0.094687
    140 H61        -5.2930    2.4120    2.8240 ha        1 MOL      0.094687
    141 H62        -7.3790   -2.0540    3.1530 ha        1 MOL      0.192628
    142 H63        -4.6210    0.9030    4.6600 ha        1 MOL      0.192628
    143 H64        -6.0610   -2.3770    4.8210 ho        1 MOL      0.288731
    144 N13        -5.1180    4.2630   -0.0470 n         1 MOL     -0.575714
    145 C48        -4.1190    5.2630    0.4260 c3        1 MOL     -0.029776
    146 C49        -2.8090    5.3570   -0.4400 c         1 MOL      0.316049
    147 O21        -2.2600    6.3930   -0.5260 o         1 MOL     -0.507992
    148 C50        -3.8490    5.1020    1.9070 c3        1 MOL      0.129151
    149 C51        -3.3410    6.3440    2.6340 c3        1 MOL     -0.386332
    150 C52        -3.1790    6.2310    4.1380 c         1 MOL      0.687054
    151 O22        -2.6200    5.1660    4.6310 o         1 MOL     -0.716273
    152 O23        -3.6650    7.1640    4.8060 o         1 MOL     -0.716273
    153 H65        -6.0430    4.6460   -0.2020 hn        1 MOL      0.301832
    154 H66        -4.6250    6.2290    0.3470 h1        1 MOL      0.091160
    155 H67        -3.0470    4.3570    1.9940 hc        1 MOL      0.066714
    156 H68        -4.7650    4.7540    2.3870 hc        1 MOL      0.066714
    157 H69        -4.0620    7.1020    2.3580 hc        1 MOL      0.087516
    158 H70        -2.3420    6.5510    2.2410 hc        1 MOL      0.087516
    159 N14        -2.4320    4.3460   -1.1840 n         1 MOL     -0.036115
    160 C53        -1.4410    4.2870   -2.2860 c3        1 MOL     -0.031647
    161 C54        -1.8890    4.9030   -3.5650 c         1 MOL      0.441544
    162 O24        -1.0840    5.5370   -4.3080 o         1 MOL     -0.528200
    163 C55        -0.9220    2.9280   -2.5390 c3        1 MOL      0.110012
    164 C56        -0.4450    2.1030   -1.3080 c3        1 MOL      0.242432
    165 C57         0.7520    2.6330   -0.5520 c         1 MOL      0.555002
    166 O25         0.6850    3.7190    0.0430 o         1 MOL     -0.611482
    167 O26         1.8290    1.9320   -0.5420 o         1 MOL     -0.611482
    168 H71        -3.0320    3.5480   -1.0930 hn        1 MOL      0.156371
    169 H72        -0.5550    4.8560   -1.9940 h1        1 MOL      0.108555
    170 H73        -0.1390    2.9180   -3.3000 hc        1 MOL     -0.061056
    171 H74        -1.7780    2.4280   -2.9670 hc        1 MOL     -0.061056
    172 H75        -0.2410    1.0680   -1.6030 hc        1 MOL     -0.122937
    173 H76        -1.2760    2.0070   -0.6090 hc        1 MOL     -0.122937
    174 N15        -3.2260    4.7750   -3.8630 n         1 MOL     -0.214205
    175 C58        -3.8790    5.3380   -5.0330 c3        1 MOL     -0.304918
    176 H77        -3.8940    4.5970   -5.8320 h1        1 MOL      0.115101
    177 H78        -4.9010    5.6190   -4.7790 h1        1 MOL      0.115101
    178 H79        -3.3320    6.2190   -5.3660 h1        1 MOL      0.115101
    179 H80        -3.8120    4.2950   -3.1890 hn        1 MOL      0.192444
    180 Ca1         4.1900    1.8080    1.0060 Ca        1 MOL      1.872301
    181 O27         3.1960    4.2960    0.6720 oh        1 MOL     -0.833988
    182 H81         2.3500    3.9910    0.3460 ho        1 MOL      0.393580
    183 H82         3.4360    5.0340    0.1140 ho        1 MOL      0.393580
    184 O28         1.9020    2.1350    2.5760 oh        1 MOL     -0.833988
    185 H83         1.3000    2.8590    2.4270 ho        1 MOL      0.393580
    186 H84         1.4550    1.5650    3.2020 ho        1 MOL      0.393580
    187 O29         5.9880    0.4140    2.6620 oh        1 MOL     -0.833988
    188 H85         5.8580   -0.2100    3.3830 ho        1 MOL      0.393580
    189 H86         6.8340    0.1720    2.2880 ho        1 MOL      0.393580
    190 O30         4.7250    3.3770    3.0480 oh        1 MOL     -0.833988
    191 H87         5.1960    4.2060    3.0810 ho        1 MOL      0.393580
    192 H88         4.4160    3.2420    3.9470 ho        1 MOL      0.393580
@<TRIPOS>BOND
     1    1    2 1   
     2    1    4 1   
     3    1    5 1   
     4    1    6 1   
     5    2    3 2   
     6    2    7 1   
     7    7    8 1   
     8    7   15 1   
     9    8    9 1   
    10    8   11 1   
    11    8   16 1   
    12    9   10 2   
    13    9   19 1   
    14   11   12 1   
    15   11   17 1   
    16   11   18 1   
    17   12   13 1   
    18   12   14 1   
    19   19   20 1   
    20   19   27 1   
    21   20   21 1   
    22   20   23 1   
    23   20   28 1   
    24   21   22 2   
    25   21   38 1   
    26   23   24 1   
    27   23   25 1   
    28   23   29 1   
    29   24   26 1   
    30   24   30 1   
    31   24   31 1   
    32   25   32 1   
    33   25   33 1   
    34   25   34 1   
    35   26   35 1   
    36   26   36 1   
    37   26   37 1   
    38   38   39 1   
    39   38   46 1   
    40   39   40 1   
    41   39   42 1   
    42   39   47 1   
    43   40   41 2   
    44   40   50 1   
    45   42   43 1   
    46   42   48 1   
    47   42   49 1   
    48   43   44 1   
    49   43   45 1   
    50   50   51 1   
    51   50   54 1   
    52   51   52 1   
    53   51   55 1   
    54   51   56 1   
    55   52   53 2   
    56   52   57 1   
    57   57   58 1   
    58   57   65 1   
    59   58   59 1   
    60   58   61 1   
    61   58   66 1   
    62   59   60 2   
    63   59   69 1   
    64   61   62 1   
    65   61   67 1   
    66   61   68 1   
    67   62   63 1   
    68   62   64 1   
    69   69   70 1   
    70   69   73 1   
    71   70   71 1   
    72   70   74 1   
    73   70   75 1   
    74   71   72 2   
    75   71   76 1   
    76   76   77 1   
    77   76   85 1   
    78   77   78 1   
    79   77   80 1   
    80   77   86 1   
    81   78   79 2   
    82   78   93 1   
    83   80   81 1   
    84   80   87 1   
    85   80   88 1   
    86   81   82 1   
    87   81   89 1   
    88   81   90 1   
    89   82   83 1   
    90   82   84 2   
    91   83   91 1   
    92   83   92 1   
    93   93   94 1   
    94   93  100 1   
    95   94   95 1   
    96   94   97 1   
    97   94  101 1   
    98   95   96 2   
    99   95  109 1   
   100   97   98 1   
   101   97   99 1   
   102   97  102 1   
   103   98  103 1   
   104   98  104 1   
   105   98  105 1   
   106   99  106 1   
   107   99  107 1   
   108   99  108 1   
   109  109  110 1   
   110  109  117 1   
   111  110  111 1   
   112  110  113 1   
   113  110  118 1   
   114  111  112 2   
   115  111  123 1   
   116  113  114 1   
   117  113  119 1   
   118  113  120 1   
   119  114  115 1   
   120  114  116 2   
   121  115  121 1   
   122  115  122 1   
   123  123  124 1   
   124  123  135 1   
   125  124  125 1   
   126  124  127 1   
   127  124  136 1   
   128  125  126 2   
   129  125  144 1   
   130  127  128 1   
   131  127  137 1   
   132  127  138 1   
   133  128  129 ar  
   134  128  130 ar  
   135  129  131 ar  
   136  129  139 1   
   137  130  132 ar  
   138  130  140 1   
   139  131  133 ar  
   140  131  141 1   
   141  132  133 ar  
   142  132  142 1   
   143  133  134 1   
   144  134  143 1   
   145  144  145 1   
   146  144  153 1   
   147  145  146 1   
   148  145  148 1   
   149  145  154 1   
   150  146  147 2   
   151  146  159 1   
   152  148  149 1   
   153  148  155 1   
   154  148  156 1   
   155  149  150 1   
   156  149  157 1   
   157  149  158 1   
   158  150  151 1   
   159  150  152 1   
   160  159  160 1   
   161  159  168 1   
   162  160  161 1   
   163  160  163 1   
   164  160  169 1   
   165  161  162 2   
   166  161  174 1   
   167  163  164 1   
   168  163  170 1   
   169  163  171 1   
   170  164  165 1   
   171  164  172 1   
   172  164  173 1   
   173  165  166 1   
   174  165  167 1   
   175  174  175 1   
   176  174  179 1   
   177  175  176 1   
   178  175  177 1   
   179  175  178 1   
   180  181  182 1   
   181  181  183 1   
   182  184  185 1   
   183  184  186 1   
   184  187  188 1   
   185  187  189 1   
   186  190  191 1   
   187  190  192 1   
@<TRIPOS>SUBSTRUCTURE
     1 MOL         1 TEMP              0 ****  ****    0 ROOT
