@<TRIPOS>MOLECULE
MOL
  198   191     1     0     0
SMALL
resp


@<TRIPOS>ATOM
      1 C1          7.8290    7.3070    3.2880 c3        1 MOL     -0.429396
      2 C2          6.7730    6.3380    2.7030 c         1 MOL      0.713292
      3 O1          5.5920    6.5720    2.7210 o         1 MOL     -0.595910
      4 H1          8.0610    8.0770    2.5530 hc        1 MOL      0.112073
      5 H2          7.4330    7.7740    4.1900 hc        1 MOL      0.112073
      6 H3          8.7360    6.7540    3.5330 hc        1 MOL      0.112073
      7 N1          7.2830    5.2170    2.1560 n         1 MOL     -0.634711
      8 C3          6.5570    4.0530    1.6520 c3        1 MOL      0.411990
      9 C4          5.7290    3.2160    2.7110 c         1 MOL      0.383676
     10 O2          6.1360    3.1070    3.8370 o         1 MOL     -0.507303
     11 C5          7.5000    3.1930    0.9860 c3        1 MOL     -0.319110
     12 C6          6.9360    2.3890   -0.1510 c         1 MOL      0.737838
     13 O3          7.6510    1.4490   -0.5890 o         1 MOL     -0.707049
     14 O4          5.7890    2.5330   -0.5650 o         1 MOL     -0.707049
     15 H4          8.2910    5.1090    2.2500 hn        1 MOL      0.309944
     16 H5          5.8820    4.4190    0.8870 h1        1 MOL     -0.055411
     17 H6          7.8950    2.4170    1.6390 hc        1 MOL      0.061053
     18 H7          8.3210    3.8050    0.6240 hc        1 MOL      0.061053
     19 N2          4.5700    2.6840    2.3200 n         1 MOL     -0.189495
     20 C7          3.5980    2.0430    3.1740 c3        1 MOL     -0.095522
     21 C8          3.8250    0.5770    3.5180 c         1 MOL      0.533400
     22 O5          3.3200    0.1730    4.5340 o         1 MOL     -0.545574
     23 C9          2.1640    2.3730    2.7060 c3        1 MOL      0.044343
     24 C10         1.6930    3.7890    2.6940 c3        1 MOL      0.039576
     25 C11         1.9990    4.7020    1.4680 c3        1 MOL      0.044163
     26 C12         0.8790    5.7550    1.1670 c3        1 MOL      0.253427
     27 N3          1.3370    6.8030    0.2290 n4        1 MOL     -0.481503
     28 H8          4.3060    2.7200    1.3450 hn        1 MOL      0.144930
     29 H9          3.7180    2.6140    4.0940 h1        1 MOL      0.095563
     30 H10         1.5110    2.0410    3.5100 hc        1 MOL      0.023936
     31 H11         1.8350    1.7920    1.8400 hc        1 MOL      0.023936
     32 H12         2.0490    4.3270    3.5690 hc        1 MOL      0.001293
     33 H13         0.6190    3.8250    2.8780 hc        1 MOL      0.001293
     34 H14         2.0480    4.0420    0.6050 hc        1 MOL     -0.013574
     35 H15         2.9510    5.2230    1.6080 hc        1 MOL     -0.013574
     36 H16         0.6780    6.2070    2.1380 hx        1 MOL      0.004465
     37 H17        -0.0030    5.2790    0.7420 hx        1 MOL      0.004465
     38 H18         1.9720    6.4070   -0.4470 hn        1 MOL      0.338929
     39 H19         0.6560    7.2800   -0.3460 hn        1 MOL      0.338929
     40 H20         1.9570    7.4820    0.6500 hn        1 MOL      0.338929
     41 N4          4.5140   -0.3390    2.7490 n         1 MOL     -0.364018
     42 C13         5.1490   -0.2190    1.4740 c3        1 MOL     -0.001070
     43 C14         6.1290   -1.4300    1.1570 c         1 MOL      0.318189
     44 O6          5.9910   -2.4800    1.7680 o         1 MOL     -0.469265
     45 C15         4.0760   -0.0950    0.4060 c3        1 MOL     -0.181721
     46 C16         3.0870   -1.1830    0.3110 c         1 MOL      0.787095
     47 O7          3.2650   -2.1220   -0.4700 o         1 MOL     -0.757238
     48 O8          2.0310   -1.1970    1.0080 o         1 MOL     -0.757238
     49 H21         4.3700   -1.2990    3.0110 hn        1 MOL      0.252063
     50 H22         5.7230    0.6990    1.4630 h1        1 MOL      0.134749
     51 H23         4.5520    0.0020   -0.5700 hc        1 MOL      0.048602
     52 H24         3.5770    0.8770    0.5050 hc        1 MOL      0.048602
     53 N5          7.0300   -1.3350    0.1590 n         1 MOL     -0.164971
     54 C17         7.9050   -2.4640   -0.3250 c3        1 MOL     -0.291270
     55 C18         7.1800   -3.7110   -0.9900 c         1 MOL      0.514579
     56 O9          7.8560   -4.5410   -1.5010 o         1 MOL     -0.516018
     57 H25         7.1900   -0.3720   -0.1070 hn        1 MOL      0.198960
     58 H26         8.4530   -2.9450    0.4850 h1        1 MOL      0.145041
     59 H27         8.6810   -2.1310   -1.0200 h1        1 MOL      0.145041
     60 N6          5.8240   -3.7110   -0.9730 n         1 MOL     -0.301757
     61 C19         5.0360   -4.6040   -1.8720 c3        1 MOL      0.117267
     62 C20         5.5860   -4.8280   -3.3350 c         1 MOL      0.555398
     63 O10         5.8590   -5.9530   -3.6920 o         1 MOL     -0.524653
     64 C21         4.5050   -5.8720   -1.1700 c3        1 MOL     -0.460320
     65 C22         3.5520   -5.6910   -0.0400 c         1 MOL      0.885194
     66 O11         3.9210   -5.9160    1.0900 o         1 MOL     -0.767924
     67 O12         2.3880   -5.2980   -0.2600 o         1 MOL     -0.767924
     68 H28         5.3040   -3.0360   -0.4430 hn        1 MOL      0.306859
     69 H29         4.0820   -4.0840   -1.9960 h1        1 MOL      0.072723
     70 H30         5.3930   -6.4150   -0.8430 hc        1 MOL      0.121456
     71 H31         4.1000   -6.5990   -1.8750 hc        1 MOL      0.121456
     72 N7          5.8220   -3.7850   -4.1890 n         1 MOL     -0.481102
     73 C23         5.2930   -2.4530   -3.9570 c3        1 MOL     -0.010899
     74 C24         3.8020   -2.2810   -4.1820 c         1 MOL      0.567820
     75 O13         3.3650   -2.8960   -5.0820 o         1 MOL     -0.543058
     76 H32         6.1310   -3.9670   -5.1310 hn        1 MOL      0.319095
     77 H33         5.8110   -1.8940   -4.7380 h1        1 MOL      0.041274
     78 H34         5.4480   -2.0120   -2.9720 h1        1 MOL      0.041274
     79 N8          3.1150   -1.4470   -3.3800 n         1 MOL     -0.502102
     80 C25         1.7240   -1.1170   -3.6610 c3        1 MOL      0.162089
     81 C26         1.3810    0.2790   -2.9900 c         1 MOL      0.354334
     82 O14         2.0870    0.7450   -2.1570 o         1 MOL     -0.403637
     83 C27         0.7990   -2.3000   -3.1010 c3        1 MOL      0.256175
     84 C28        -0.7750   -2.0900   -3.2600 c3        1 MOL     -0.419045
     85 O15         0.9700   -2.2940   -1.6790 oh        1 MOL     -0.577970
     86 H35         3.6340   -0.9770   -2.6490 hn        1 MOL      0.331688
     87 H36         1.5480   -1.0150   -4.7350 h1        1 MOL      0.014130
     88 H37         1.0470   -3.2160   -3.6530 h1        1 MOL      0.071764
     89 H38         1.9220   -2.2610   -1.5310 ho        1 MOL      0.242069
     90 H39        -1.0060   -1.6600   -4.2330 hc        1 MOL      0.087329
     91 H40        -1.2030   -3.0730   -3.0700 hc        1 MOL      0.087329
     92 H41        -1.1550   -1.3650   -2.5410 hc        1 MOL      0.087329
     93 N9          0.3600    1.0160   -3.6190 n         1 MOL     -0.389336
     94 C29        -0.2910    2.2070   -3.1550 c3        1 MOL      0.016411
     95 C30        -1.1410    1.9140   -1.8790 c         1 MOL      0.329305
     96 O16        -0.9150    0.9580   -1.1170 o         1 MOL     -0.306269
     97 C31         0.7360    3.3870   -3.0260 c3        1 MOL      0.013647
     98 C32         1.1460    3.9100   -4.4310 c3        1 MOL     -0.035461
     99 C33         0.2500    4.6690   -2.2710 c3        1 MOL     -0.114663
    100 C34         0.1340    4.8410   -5.2100 c3        1 MOL     -0.124876
    101 H42         0.0190    0.6160   -4.4780 hn        1 MOL      0.287054
    102 H43        -0.9910    2.3900   -3.9640 h1        1 MOL      0.077520
    103 H44         1.6200    3.0990   -2.4640 hc        1 MOL      0.102574
    104 H45         1.3750    3.0860   -5.1200 hc        1 MOL      0.038701
    105 H46         2.0730    4.4570   -4.2360 hc        1 MOL      0.038701
    106 H47         0.9820    5.4730   -2.3060 hc        1 MOL      0.012998
    107 H48        -0.7190    5.0550   -2.5670 hc        1 MOL      0.012998
    108 H49        -0.0190    4.4790   -1.2340 hc        1 MOL      0.012998
    109 H50        -0.1160    5.7530   -4.6720 hc        1 MOL      0.034273
    110 H51         0.5630    5.0660   -6.1900 hc        1 MOL      0.034273
    111 H52        -0.7400    4.2010   -5.3320 hc        1 MOL      0.034273
    112 N10        -2.1690    2.7150   -1.6760 n         1 MOL     -0.355036
    113 C35        -3.1290    2.5570   -0.5760 c3        1 MOL     -0.013162
    114 C36        -4.6330    2.6080   -0.9120 c         1 MOL      0.617206
    115 O17        -5.4040    3.0340   -0.0470 o         1 MOL     -0.549918
    116 C37        -2.6510    3.3830    0.6330 c3        1 MOL      0.366730
    117 C38        -2.7870    4.8770    0.5070 c3        1 MOL     -0.393468
    118 O18        -1.3040    3.1530    1.0160 oh        1 MOL     -0.511285
    119 H53        -2.2190    3.5900   -2.1840 hn        1 MOL      0.220460
    120 H54        -3.0770    1.5250   -0.2290 h1        1 MOL      0.018158
    121 H55        -3.3090    3.2010    1.4830 h1        1 MOL     -0.004143
    122 H56        -1.2040    2.2000    0.9670 ho        1 MOL      0.339626
    123 H57        -3.8110    5.1540    0.2660 hc        1 MOL      0.100591
    124 H58        -2.4530    5.2570    1.4700 hc        1 MOL      0.100591
    125 H59        -2.1980    5.2860   -0.3130 hc        1 MOL      0.100591
    126 N11        -4.9370    2.1930   -2.1220 n         1 MOL     -0.418225
    127 C39        -6.2790    2.1230   -2.6530 c3        1 MOL     -0.180542
    128 C40        -6.9650    0.9010   -2.0030 c         1 MOL      0.638623
    129 O19        -6.8060   -0.2070   -2.5050 o         1 MOL     -0.545943
    130 C41        -6.3440    1.9310   -4.1890 c3        1 MOL      0.593198
    131 C42        -7.7510    1.8730   -4.7660 c3        1 MOL     -0.530943
    132 O20        -5.6370    3.0280   -4.7440 oh        1 MOL     -0.639891
    133 H60        -4.2320    1.7680   -2.7100 hn        1 MOL      0.258444
    134 H61        -6.8650    3.0090   -2.4030 h1        1 MOL      0.125206
    135 H62        -5.8860    1.0070   -4.5510 h1        1 MOL     -0.026346
    136 H63        -4.8920    2.6630   -5.2280 ho        1 MOL      0.370407
    137 H64        -8.1830    2.8730   -4.8570 hc        1 MOL      0.135517
    138 H65        -7.7010    1.3470   -5.7230 hc        1 MOL      0.135517
    139 H66        -8.3820    1.2750   -4.1140 hc        1 MOL      0.135517
    140 N12        -7.6080    1.1550   -0.8420 n         1 MOL     -0.723376
    141 C43        -8.0710    0.2910    0.2640 c3        1 MOL      0.474859
    142 C44        -6.9310   -0.4990    0.8710 c         1 MOL      0.455312
    143 O21        -5.8670   -0.5610    0.3010 o         1 MOL     -0.414611
    144 C45        -9.1970   -0.5480   -0.2310 c3        1 MOL     -0.181170
    145 C46       -10.5010    0.2370   -0.5820 c3        1 MOL     -0.015519
    146 C47       -11.6910   -0.7420   -0.8540 c3        1 MOL      0.145110
    147 C48       -12.7910    0.0910   -1.4640 c3        1 MOL     -0.047593
    148 N13       -14.0000   -0.7730   -1.7320 n4        1 MOL     -0.121886
    149 H67        -7.5220    2.1290   -0.6160 hn        1 MOL      0.300772
    150 H68        -8.4290    0.9460    1.0610 h1        1 MOL      0.001249
    151 H69        -9.4960   -1.1220    0.6510 hc        1 MOL      0.053024
    152 H70        -8.9260   -1.2260   -1.0380 hc        1 MOL      0.053024
    153 H71       -10.2850    0.8380   -1.4680 hc        1 MOL      0.004941
    154 H72       -10.7160    0.9180    0.2390 hc        1 MOL      0.004941
    155 H73       -11.9800   -1.2040    0.0890 hc        1 MOL     -0.007468
    156 H74       -11.5030   -1.5640   -1.5380 hc        1 MOL     -0.007468
    157 H75       -12.4140    0.4240   -2.4320 hx        1 MOL      0.081681
    158 H76       -12.9970    0.8990   -0.7580 hx        1 MOL      0.081681
    159 H77       -14.7510   -0.2050   -2.0930 hn        1 MOL      0.206277
    160 H78       -13.8350   -1.5890   -2.3100 hn        1 MOL      0.206277
    161 H79       -14.3450   -1.1760   -0.8730 hn        1 MOL      0.206277
    162 N14        -7.1430   -1.1100    2.0500 n         1 MOL     -0.607093
    163 C49        -6.1000   -1.8750    2.8270 c3        1 MOL      0.251286
    164 C50        -4.7190   -1.2250    2.8970 c         1 MOL      0.216151
    165 O22        -3.7230   -1.8490    2.5320 o         1 MOL     -0.509064
    166 C51        -6.6230   -2.2760    4.2770 c3        1 MOL     -0.128802
    167 C52        -5.5400   -3.0490    5.1020 c3        1 MOL     -0.219713
    168 C53        -6.0810   -3.5660    6.4180 c         1 MOL      0.772873
    169 O23        -5.2120   -4.0440    7.1980 o         1 MOL     -0.655978
    170 O24        -7.2910   -3.5000    6.7900 o         1 MOL     -0.655978
    171 H80        -7.9230   -0.7610    2.5820 hn        1 MOL      0.287253
    172 H81        -5.9360   -2.7930    2.2720 h1        1 MOL      0.093316
    173 H82        -7.4270   -2.9930    4.1390 hc        1 MOL      0.035418
    174 H83        -6.9570   -1.3970    4.8140 hc        1 MOL      0.035418
    175 H84        -4.6930   -2.3650    5.2140 hc        1 MOL      0.072304
    176 H85        -5.2910   -3.9610    4.5640 hc        1 MOL      0.072304
    177 N15        -4.4940    0.0300    3.2940 n         1 MOL     -0.196048
    178 C54        -5.4360    0.8880    4.0270 c3        1 MOL     -0.246649
    179 H86        -5.3970    0.6450    5.0890 h1        1 MOL      0.112654
    180 H87        -5.1630    1.9340    3.8840 h1        1 MOL      0.112654
    181 H88        -6.4460    0.7220    3.6540 h1        1 MOL      0.112654
    182 H89        -3.5200    0.3020    3.2980 hn        1 MOL      0.299256
    183 Ca1         0.6580   -3.3970    0.6510 Ca        1 MOL      1.785997
    184 O25        -1.2520   -1.3570    0.2830 oh        1 MOL     -0.875329
    185 H90        -2.0710   -1.5870   -0.1520 ho        1 MOL      0.429226
    186 H91        -0.8290   -0.7210   -0.3000 ho        1 MOL      0.429226
    187 O26        -0.1610   -5.6670    1.5070 oh        1 MOL     -0.875329
    188 H92         0.5880   -6.0950    1.9220 ho        1 MOL      0.429226
    189 H93        -0.9080   -6.2230    1.7150 ho        1 MOL      0.429226
    190 O27        -1.5450   -4.0070   -0.8700 oh        1 MOL     -0.875329
    191 H94        -2.2230   -3.4910   -1.3070 ho        1 MOL      0.429226
    192 H95        -1.6920   -4.8990   -1.1870 ho        1 MOL      0.429226
    193 O28        -1.1860   -2.9840    2.6240 oh        1 MOL     -0.875329
    194 H96        -2.0590   -2.6760    2.3900 ho        1 MOL      0.429226
    195 H97        -1.2360   -3.1740    3.5630 ho        1 MOL      0.429226
    196 O29         2.4940   -4.0720    2.4760 oh        1 MOL     -0.875329
    197 H98         2.9650   -4.7950    2.0800 ho        1 MOL      0.429226
    198 H99         3.1340   -3.6440    3.0530 ho        1 MOL      0.429226
@<TRIPOS>BOND
     1    1    2 1   
     2    1    4 1   
     3    1    5 1   
     4    1    6 1   
     5    2    3 2   
     6    2    7 1   
     7    7    8 1   
     8    7   15 1   
     9    8    9 1   
    10    8   11 1   
    11    8   16 1   
    12    9   10 2   
    13    9   19 1   
    14   11   12 1   
    15   11   17 1   
    16   11   18 1   
    17   12   13 1   
    18   12   14 1   
    19   19   20 1   
    20   19   28 1   
    21   20   21 1   
    22   20   23 1   
    23   20   29 1   
    24   21   22 2   
    25   21   41 1   
    26   23   24 1   
    27   23   30 1   
    28   23   31 1   
    29   24   25 1   
    30   24   32 1   
    31   24   33 1   
    32   25   26 1   
    33   25   34 1   
    34   25   35 1   
    35   26   27 1   
    36   26   36 1   
    37   26   37 1   
    38   27   38 1   
    39   27   39 1   
    40   27   40 1   
    41   41   42 1   
    42   41   49 1   
    43   42   43 1   
    44   42   45 1   
    45   42   50 1   
    46   43   44 2   
    47   43   53 1   
    48   45   46 1   
    49   45   51 1   
    50   45   52 1   
    51   46   47 1   
    52   46   48 1   
    53   53   54 1   
    54   53   57 1   
    55   54   55 1   
    56   54   58 1   
    57   54   59 1   
    58   55   56 2   
    59   55   60 1   
    60   60   61 1   
    61   60   68 1   
    62   61   62 1   
    63   61   64 1   
    64   61   69 1   
    65   62   63 2   
    66   62   72 1   
    67   64   65 1   
    68   64   70 1   
    69   64   71 1   
    70   65   66 1   
    71   65   67 1   
    72   72   73 1   
    73   72   76 1   
    74   73   74 1   
    75   73   77 1   
    76   73   78 1   
    77   74   75 2   
    78   74   79 1   
    79   79   80 1   
    80   79   86 1   
    81   80   81 1   
    82   80   83 1   
    83   80   87 1   
    84   81   82 2   
    85   81   93 1   
    86   83   84 1   
    87   83   85 1   
    88   83   88 1   
    89   84   90 1   
    90   84   91 1   
    91   84   92 1   
    92   85   89 1   
    93   93   94 1   
    94   93  101 1   
    95   94   95 1   
    96   94   97 1   
    97   94  102 1   
    98   95   96 2   
    99   95  112 1   
   100   97   98 1   
   101   97   99 1   
   102   97  103 1   
   103   98  100 1   
   104   98  104 1   
   105   98  105 1   
   106   99  106 1   
   107   99  107 1   
   108   99  108 1   
   109  100  109 1   
   110  100  110 1   
   111  100  111 1   
   112  112  113 1   
   113  112  119 1   
   114  113  114 1   
   115  113  116 1   
   116  113  120 1   
   117  114  115 2   
   118  114  126 1   
   119  116  117 1   
   120  116  118 1   
   121  116  121 1   
   122  117  123 1   
   123  117  124 1   
   124  117  125 1   
   125  118  122 1   
   126  126  127 1   
   127  126  133 1   
   128  127  128 1   
   129  127  130 1   
   130  127  134 1   
   131  128  129 2   
   132  128  140 1   
   133  130  131 1   
   134  130  132 1   
   135  130  135 1   
   136  131  137 1   
   137  131  138 1   
   138  131  139 1   
   139  132  136 1   
   140  140  141 1   
   141  140  149 1   
   142  141  142 1   
   143  141  144 1   
   144  141  150 1   
   145  142  143 2   
   146  142  162 1   
   147  144  145 1   
   148  144  151 1   
   149  144  152 1   
   150  145  146 1   
   151  145  153 1   
   152  145  154 1   
   153  146  147 1   
   154  146  155 1   
   155  146  156 1   
   156  147  148 1   
   157  147  157 1   
   158  147  158 1   
   159  148  159 1   
   160  148  160 1   
   161  148  161 1   
   162  162  163 1   
   163  162  171 1   
   164  163  164 1   
   165  163  166 1   
   166  163  172 1   
   167  164  165 2   
   168  164  177 1   
   169  166  167 1   
   170  166  173 1   
   171  166  174 1   
   172  167  168 1   
   173  167  175 1   
   174  167  176 1   
   175  168  169 1   
   176  168  170 1   
   177  177  178 1   
   178  177  182 1   
   179  178  179 1   
   180  178  180 1   
   181  178  181 1   
   182  184  185 1   
   183  184  186 1   
   184  187  188 1   
   185  187  189 1   
   186  190  191 1   
   187  190  192 1   
   188  193  194 1   
   189  193  195 1   
   190  196  197 1   
   191  196  198 1   
@<TRIPOS>SUBSTRUCTURE
     1 MOL         1 TEMP              0 ****  ****    0 ROOT
