@<TRIPOS>MOLECULE
MOL
  198   191     1     0     0
SMALL
resp


@<TRIPOS>ATOM
      1 C1          4.1060   -3.3140   -3.6780 c3        1 MOL     -0.499013
      2 C2          3.2960   -3.4740   -2.3740 c         1 MOL      0.736538
      3 O1          2.6070   -2.5210   -1.9710 o         1 MOL     -0.518261
      4 H1          5.1040   -2.9440   -3.4420 hc        1 MOL      0.123317
      5 H2          4.1860   -4.2790   -4.1770 hc        1 MOL      0.123317
      6 H3          3.6020   -2.6040   -4.3350 hc        1 MOL      0.123317
      7 N1          3.5380   -4.5180   -1.4990 n         1 MOL     -0.682314
      8 C3          2.9060   -4.5440   -0.1490 c3        1 MOL      0.174885
      9 C4          1.3120   -4.5320   -0.2070 c         1 MOL      0.773470
     10 O2          0.6370   -4.0670    0.7370 o         1 MOL     -0.559729
     11 C5          3.4330   -3.4820    0.8740 c3        1 MOL     -0.871295
     12 C6          4.9490   -3.5290    1.0400 c         1 MOL      1.009129
     13 O3          5.6230   -4.5310    1.0860 o         1 MOL     -0.719802
     14 O4          5.5300   -2.4220    1.1970 o         1 MOL     -0.719802
     15 H4          4.1850   -5.2460   -1.7270 hn        1 MOL      0.345188
     16 H5          3.2000   -5.5310    0.1920 h1        1 MOL      0.067293
     17 H6          3.0690   -3.6600    1.8920 hc        1 MOL      0.231453
     18 H7          3.1530   -2.4960    0.5160 hc        1 MOL      0.231453
     19 N2          0.7050   -5.0780   -1.2550 n         1 MOL     -0.727359
     20 C7         -0.7120   -4.8580   -1.5610 c3        1 MOL      0.084374
     21 C8         -1.5460   -5.6890   -0.5950 c         1 MOL      0.478397
     22 O5         -1.0940   -6.8150   -0.1850 o         1 MOL     -0.542309
     23 C9         -1.0710   -5.0450   -3.0340 c3        1 MOL      0.095291
     24 C10        -0.3710   -6.3210   -3.5710 c3        1 MOL      0.330839
     25 C11        -0.8310   -3.7970   -3.9420 c3        1 MOL     -0.412867
     26 C12        -0.8040   -6.8100   -4.9170 c3        1 MOL     -0.324589
     27 H8          1.2950   -5.3520   -2.0370 hn        1 MOL      0.286105
     28 H9         -0.9430   -3.8280   -1.2800 h1        1 MOL      0.087171
     29 H10        -2.1000   -5.4050   -3.1150 hc        1 MOL      0.044750
     30 H11        -0.4680   -7.2390   -2.9970 hc        1 MOL     -0.055459
     31 H12         0.6930   -6.1060   -3.6270 hc        1 MOL     -0.055459
     32 H13        -1.3780   -2.9220   -3.5880 hc        1 MOL      0.123858
     33 H14         0.2330   -3.5810   -3.9120 hc        1 MOL      0.123858
     34 H15        -1.1960   -3.8960   -4.9680 hc        1 MOL      0.123858
     35 H16        -0.2380   -7.7110   -5.1600 hc        1 MOL      0.054736
     36 H17        -1.8650   -7.0640   -4.9130 hc        1 MOL      0.054736
     37 H18        -0.6620   -6.0560   -5.6880 hc        1 MOL      0.054736
     38 N3         -2.8100   -5.3330   -0.2030 n         1 MOL     -0.507298
     39 C13        -3.5600   -4.0970   -0.2830 c3        1 MOL     -0.010865
     40 C14        -3.7140   -3.2760    0.9610 c         1 MOL      0.592873
     41 O6         -4.2140   -2.1510    0.9550 o         1 MOL     -0.500921
     42 C15        -4.8620   -4.3220   -1.0030 c3        1 MOL     -0.082916
     43 C16        -5.8530   -5.3130   -0.3970 c         1 MOL      0.730171
     44 O7         -5.6810   -5.8750    0.7040 o         1 MOL     -0.710744
     45 O8         -6.8600   -5.5900   -1.0940 o         1 MOL     -0.710744
     46 H19        -3.3230   -6.0190    0.3210 hn        1 MOL      0.294920
     47 H20        -3.0170   -3.4650   -0.9860 h1        1 MOL      0.030760
     48 H21        -4.6720   -4.6590   -2.0190 hc        1 MOL      0.007685
     49 H22        -5.3410   -3.3920   -1.2870 hc        1 MOL      0.007685
     50 N4         -3.4810   -3.8920    2.1360 n         1 MOL     -0.429342
     51 C17        -3.8920   -3.3840    3.4480 c3        1 MOL     -0.121829
     52 C18        -5.3530   -2.8630    3.5480 c         1 MOL      0.502201
     53 O9         -6.3870   -3.5950    3.5300 o         1 MOL     -0.525775
     54 H23        -3.4730   -4.9030    2.0990 hn        1 MOL      0.327841
     55 H24        -3.2420   -2.5300    3.6470 h1        1 MOL      0.092510
     56 H25        -3.6110   -4.1050    4.2170 h1        1 MOL      0.092510
     57 N5         -5.5420   -1.5790    3.8150 n         1 MOL     -0.480478
     58 C19        -6.8600   -0.8430    3.8600 c3        1 MOL      0.037251
     59 C20        -7.6480   -0.7290    2.5420 c         1 MOL      0.403252
     60 O10        -8.8110   -0.2900    2.4840 o         1 MOL     -0.586113
     61 C21        -6.5520    0.6210    4.3660 c3        1 MOL     -0.188956
     62 C22        -5.4520    1.3450    3.6810 c         1 MOL      0.738485
     63 O11        -4.5170    1.8630    4.3280 o         1 MOL     -0.703778
     64 O12        -5.4500    1.3570    2.4070 o         1 MOL     -0.703778
     65 H26        -4.6610   -1.0840    3.8460 hn        1 MOL      0.312334
     66 H27        -7.5140   -1.3980    4.5270 h1        1 MOL      0.098180
     67 H28        -6.3310    0.6240    5.4400 hc        1 MOL      0.018829
     68 H29        -7.4590    1.2090    4.2970 hc        1 MOL      0.018829
     69 N6         -7.0150   -1.0530    1.4200 n         1 MOL      0.059701
     70 C23        -7.5880   -0.9980    0.0530 c3        1 MOL     -0.576954
     71 C24        -7.8410    0.4330   -0.5370 c         1 MOL      0.816507
     72 O13        -8.4020    0.6060   -1.6030 o         1 MOL     -0.627885
     73 H30        -6.0800   -1.4300    1.4560 hn        1 MOL      0.161561
     74 H31        -8.5290   -1.5250   -0.0890 h1        1 MOL      0.187509
     75 H32        -6.7510   -1.5080   -0.4470 h1        1 MOL      0.187509
     76 N7         -7.4540    1.5020    0.1740 n         1 MOL     -0.440691
     77 C25        -7.5980    2.9050   -0.1710 c3        1 MOL      0.104890
     78 C26        -6.8120    3.3600   -1.3310 c         1 MOL      0.514843
     79 O14        -6.8330    4.4740   -1.7370 o         1 MOL     -0.547939
     80 C27        -9.0140    3.4420   -0.0580 c3        1 MOL     -0.108136
     81 C28        -9.6470    2.9600    1.2680 c3        1 MOL     -0.190147
     82 C29       -11.0140    3.6810    1.4740 c         1 MOL      0.678710
     83 N8        -11.6640    3.4750    2.6820 n         1 MOL     -0.867295
     84 O15       -11.5390    4.4500    0.7580 o         1 MOL     -0.546070
     85 H33        -7.0840    1.2860    1.0960 hn        1 MOL      0.179423
     86 H34        -7.1510    3.4350    0.6690 h1        1 MOL      0.076774
     87 H35        -9.4480    3.0610   -0.9780 hc        1 MOL      0.042004
     88 H36        -9.0190    4.5380   -0.0570 hc        1 MOL      0.042004
     89 H37        -8.9850    3.1310    2.1080 hc        1 MOL      0.123179
     90 H38        -9.8920    1.9040    1.1710 hc        1 MOL      0.123179
     91 H39       -11.2650    2.9420    3.4380 hn        1 MOL      0.351103
     92 H40       -12.6430    3.7340    2.6670 hn        1 MOL      0.351103
     93 N9         -6.0330    2.4940   -1.9660 n         1 MOL     -0.396175
     94 C30        -5.3100    2.6470   -3.1960 c3        1 MOL      0.162643
     95 C31        -3.7880    2.5160   -3.1030 c         1 MOL      0.502464
     96 O16        -3.1250    3.1910   -3.8860 o         1 MOL     -0.580687
     97 C32        -5.6990    1.7370   -4.3520 c3        1 MOL      0.309037
     98 C33        -5.7270    0.2400   -4.1120 c3        1 MOL     -0.371903
     99 C34        -7.0650    2.0870   -4.8970 c3        1 MOL     -0.371903
    100 H41        -6.1210    1.5260   -1.6610 hn        1 MOL      0.228042
    101 H42        -5.4650    3.6470   -3.6130 h1        1 MOL      0.031138
    102 H43        -5.0040    1.8290   -5.1950 hc        1 MOL     -0.052620
    103 H44        -4.7890   -0.0170   -3.6290 hc        1 MOL      0.082383
    104 H45        -6.5380    0.1220   -3.3980 hc        1 MOL      0.082383
    105 H46        -5.9660   -0.2600   -5.0560 hc        1 MOL      0.082383
    106 H47        -7.7600    1.7270   -4.1490 hc        1 MOL      0.082383
    107 H48        -7.2010    3.1630   -5.0730 hc        1 MOL      0.082383
    108 H49        -7.1830    1.5860   -5.8570 hc        1 MOL      0.082383
    109 N10        -3.2430    1.8150   -2.1030 n         1 MOL     -0.453561
    110 C35        -1.8360    1.4680   -1.9030 c3        1 MOL      0.214145
    111 C36        -1.2320    2.0370   -0.6320 c         1 MOL      0.587859
    112 O17        -1.9570    2.3520    0.3490 o         1 MOL     -0.530412
    113 C37        -1.7230   -0.0300   -1.9200 c3        1 MOL      0.099030
    114 C38        -0.3130   -0.5520   -2.1330 c         1 MOL      0.243532
    115 N11         0.2540   -1.1570   -1.1650 n         1 MOL     -0.422998
    116 O18         0.2370   -0.3820   -3.1930 o         1 MOL     -0.533437
    117 H50        -3.8610    1.3300   -1.4710 hn        1 MOL      0.215205
    118 H51        -1.2700    1.8440   -2.7490 h1        1 MOL      0.018575
    119 H52        -2.3650   -0.4610   -2.6870 hc        1 MOL     -0.013917
    120 H53        -2.1420   -0.4300   -1.0020 hc        1 MOL     -0.013917
    121 H54        -0.1230   -1.2980   -0.2380 hn        1 MOL      0.294331
    122 H55         1.1500   -1.5150   -1.4730 hn        1 MOL      0.294331
    123 N12         0.0490    2.2940   -0.7580 n         1 MOL     -0.569149
    124 C39         0.9710    2.9940    0.2170 c3        1 MOL      0.036985
    125 C40         2.2660    3.4470   -0.4420 c         1 MOL      0.788277
    126 O19         2.6980    2.8870   -1.4630 o         1 MOL     -0.626669
    127 C41         1.2650    2.0280    1.2850 c3        1 MOL     -0.311099
    128 C42         1.9630    2.7060    2.4890 ca        1 MOL      0.221309
    129 C43         3.2180    2.2580    2.9110 ca        1 MOL     -0.259124
    130 C44         1.2600    3.6440    3.2320 ca        1 MOL     -0.259124
    131 C45         3.7940    2.8330    4.0650 ca        1 MOL     -0.205063
    132 C46         1.8810    4.2660    4.3430 ca        1 MOL     -0.205063
    133 C47         3.1680    3.8570    4.7580 ca        1 MOL      0.265954
    134 O20         3.8740    4.5820    5.6370 oh        1 MOL     -0.486108
    135 H56         0.4490    2.1120   -1.6620 hn        1 MOL      0.359866
    136 H57         0.4970    3.9100    0.5570 h1        1 MOL      0.102055
    137 H58         1.8860    1.1710    1.0320 hc        1 MOL      0.104685
    138 H59         0.3310    1.6150    1.6460 hc        1 MOL      0.104685
    139 H60         3.7120    1.6020    2.2150 ha        1 MOL      0.184295
    140 H61         0.2510    3.9560    2.9720 ha        1 MOL      0.184295
    141 H62         4.8050    2.5900    4.3610 ha        1 MOL      0.140886
    142 H63         1.3270    5.0180    4.8910 ha        1 MOL      0.140886
    143 H64         4.6510    4.0850    5.9040 ho        1 MOL      0.366574
    144 N13         2.8080    4.6790   -0.1260 n         1 MOL     -0.764996
    145 C48         4.1260    5.1860   -0.6670 c3        1 MOL      0.221585
    146 C49         5.1980    5.1620    0.5110 c         1 MOL      0.600127
    147 O21         5.3630    6.1280    1.3000 o         1 MOL     -0.544639
    148 C50         4.0050    6.5050   -1.4920 c3        1 MOL      0.120601
    149 C51         5.3930    7.0260   -1.9810 c3        1 MOL     -0.305300
    150 C52         5.2030    8.2030   -2.9090 c         1 MOL      0.652218
    151 O22         5.3370    9.4260   -2.5230 o         1 MOL     -0.668221
    152 O23         4.8620    7.8990   -4.0920 o         1 MOL     -0.668221
    153 H65         2.4120    5.2810    0.5860 hn        1 MOL      0.338889
    154 H66         4.5070    4.4990   -1.4130 h1        1 MOL      0.037579
    155 H67         3.5500    7.2190   -0.8110 hc        1 MOL      0.000754
    156 H68         3.4050    6.3390   -2.3800 hc        1 MOL      0.000754
    157 H69         5.7960    6.3130   -2.6890 hc        1 MOL      0.084680
    158 H70         6.0440    7.2470   -1.1390 hc        1 MOL      0.084680
    159 N14         6.1500    4.2170    0.5840 n         1 MOL     -0.782050
    160 C53         6.1230    2.9120   -0.1530 c3        1 MOL      0.590579
    161 C54         6.5350    3.0790   -1.6550 c         1 MOL      0.418451
    162 O24         7.1490    4.0800   -2.0740 o         1 MOL     -0.516896
    163 C55         7.0600    1.9140    0.4330 c3        1 MOL     -0.516003
    164 C56         6.6040    1.3930    1.8180 c3        1 MOL      0.364464
    165 C57         7.7290    0.6260    2.4490 c         1 MOL      0.450290
    166 O25         8.4090    1.1410    3.3750 o         1 MOL     -0.618772
    167 O26         7.8550   -0.6230    2.1440 o         1 MOL     -0.618772
    168 H71         6.8210    4.2460    1.3350 hn        1 MOL      0.395287
    169 H72         5.1100    2.5160   -0.0290 h1        1 MOL     -0.060514
    170 H73         8.0730    2.3200    0.4670 hc        1 MOL      0.053760
    171 H74         6.9630    1.1100   -0.3030 hc        1 MOL      0.053760
    172 H75         5.7310    0.7340    1.7990 hc        1 MOL     -0.099781
    173 H76         6.3870    2.3190    2.3550 hc        1 MOL     -0.099781
    174 N15         6.1180    2.0860   -2.4750 n         1 MOL     -0.255666
    175 C58         6.5190    1.9330   -3.9480 c3        1 MOL     -0.436001
    176 H77         7.5950    2.0720   -4.0470 h1        1 MOL      0.167665
    177 H78         6.2480    0.9370   -4.2990 h1        1 MOL      0.167665
    178 H79         6.0000    2.6830   -4.5460 h1        1 MOL      0.167665
    179 H80         5.5220    1.3740   -2.0650 hn        1 MOL      0.267770
    180 Ca1         8.0480   -2.9520    1.1000 Ca        1 MOL      1.680203
    181 O27        10.4920   -2.3070    0.1890 oh        1 MOL     -0.813479
    182 O28         9.2110   -5.5890    1.3160 oh        1 MOL     -0.813479
    183 H81        10.3650   -2.0760   -0.7360 ho        1 MOL      0.379428
    184 H82         9.7310   -5.9550    2.0210 ho        1 MOL      0.379428
    185 H83        11.4380   -2.3770    0.2900 ho        1 MOL      0.379428
    186 H84         9.5810   -5.9550    0.5170 ho        1 MOL      0.379428
    187 O29         6.9970   -3.6910    3.5750 oh        1 MOL     -0.813479
    188 H85         6.1410   -4.0510    3.3530 ho        1 MOL      0.379428
    189 H86         7.1520   -3.9620    4.4870 ho        1 MOL      0.379428
    190 O30         9.9170   -1.7980    3.0640 oh        1 MOL     -0.813479
    191 H87        10.7220   -1.7090    2.5530 ho        1 MOL      0.379428
    192 H88         9.3910   -1.0350    2.8160 ho        1 MOL      0.379428
    193 O31         7.3930   -4.6590   -1.2560 oh        1 MOL     -0.813479
    194 H89         7.7250   -5.4190   -1.7190 ho        1 MOL      0.379428
    195 H90         6.7390   -4.2780   -1.8350 ho        1 MOL      0.379428
    196 O32         7.7370   -1.4740   -1.0410 oh        1 MOL     -0.813479
    197 H91         6.8890   -1.0320   -1.1220 ho        1 MOL      0.379428
    198 H92         8.2600   -1.1200   -1.7560 ho        1 MOL      0.379428
@<TRIPOS>BOND
     1    1    2 1   
     2    1    4 1   
     3    1    5 1   
     4    1    6 1   
     5    2    3 2   
     6    2    7 1   
     7    7    8 1   
     8    7   15 1   
     9    8    9 1   
    10    8   11 1   
    11    8   16 1   
    12    9   10 2   
    13    9   19 1   
    14   11   12 1   
    15   11   17 1   
    16   11   18 1   
    17   12   13 1   
    18   12   14 1   
    19   19   20 1   
    20   19   27 1   
    21   20   21 1   
    22   20   23 1   
    23   20   28 1   
    24   21   22 2   
    25   21   38 1   
    26   23   24 1   
    27   23   25 1   
    28   23   29 1   
    29   24   26 1   
    30   24   30 1   
    31   24   31 1   
    32   25   32 1   
    33   25   33 1   
    34   25   34 1   
    35   26   35 1   
    36   26   36 1   
    37   26   37 1   
    38   38   39 1   
    39   38   46 1   
    40   39   40 1   
    41   39   42 1   
    42   39   47 1   
    43   40   41 2   
    44   40   50 1   
    45   42   43 1   
    46   42   48 1   
    47   42   49 1   
    48   43   44 1   
    49   43   45 1   
    50   50   51 1   
    51   50   54 1   
    52   51   52 1   
    53   51   55 1   
    54   51   56 1   
    55   52   53 2   
    56   52   57 1   
    57   57   58 1   
    58   57   65 1   
    59   58   59 1   
    60   58   61 1   
    61   58   66 1   
    62   59   60 2   
    63   59   69 1   
    64   61   62 1   
    65   61   67 1   
    66   61   68 1   
    67   62   63 1   
    68   62   64 1   
    69   69   70 1   
    70   69   73 1   
    71   70   71 1   
    72   70   74 1   
    73   70   75 1   
    74   71   72 2   
    75   71   76 1   
    76   76   77 1   
    77   76   85 1   
    78   77   78 1   
    79   77   80 1   
    80   77   86 1   
    81   78   79 2   
    82   78   93 1   
    83   80   81 1   
    84   80   87 1   
    85   80   88 1   
    86   81   82 1   
    87   81   89 1   
    88   81   90 1   
    89   82   83 1   
    90   82   84 2   
    91   83   91 1   
    92   83   92 1   
    93   93   94 1   
    94   93  100 1   
    95   94   95 1   
    96   94   97 1   
    97   94  101 1   
    98   95   96 2   
    99   95  109 1   
   100   97   98 1   
   101   97   99 1   
   102   97  102 1   
   103   98  103 1   
   104   98  104 1   
   105   98  105 1   
   106   99  106 1   
   107   99  107 1   
   108   99  108 1   
   109  109  110 1   
   110  109  117 1   
   111  110  111 1   
   112  110  113 1   
   113  110  118 1   
   114  111  112 2   
   115  111  123 1   
   116  113  114 1   
   117  113  119 1   
   118  113  120 1   
   119  114  115 1   
   120  114  116 2   
   121  115  121 1   
   122  115  122 1   
   123  123  124 1   
   124  123  135 1   
   125  124  125 1   
   126  124  127 1   
   127  124  136 1   
   128  125  126 2   
   129  125  144 1   
   130  127  128 1   
   131  127  137 1   
   132  127  138 1   
   133  128  129 ar  
   134  128  130 ar  
   135  129  131 ar  
   136  129  139 1   
   137  130  132 ar  
   138  130  140 1   
   139  131  133 ar  
   140  131  141 1   
   141  132  133 ar  
   142  132  142 1   
   143  133  134 1   
   144  134  143 1   
   145  144  145 1   
   146  144  153 1   
   147  145  146 1   
   148  145  148 1   
   149  145  154 1   
   150  146  147 2   
   151  146  159 1   
   152  148  149 1   
   153  148  155 1   
   154  148  156 1   
   155  149  150 1   
   156  149  157 1   
   157  149  158 1   
   158  150  151 1   
   159  150  152 1   
   160  159  160 1   
   161  159  168 1   
   162  160  161 1   
   163  160  163 1   
   164  160  169 1   
   165  161  162 2   
   166  161  174 1   
   167  163  164 1   
   168  163  170 1   
   169  163  171 1   
   170  164  165 1   
   171  164  172 1   
   172  164  173 1   
   173  165  166 1   
   174  165  167 1   
   175  174  175 1   
   176  174  179 1   
   177  175  176 1   
   178  175  177 1   
   179  175  178 1   
   180  181  183 1   
   181  181  185 1   
   182  182  184 1   
   183  182  186 1   
   184  187  188 1   
   185  187  189 1   
   186  190  191 1   
   187  190  192 1   
   188  193  194 1   
   189  193  195 1   
   190  196  197 1   
   191  196  198 1   
@<TRIPOS>SUBSTRUCTURE
     1 MOL         1 TEMP              0 ****  ****    0 ROOT
