@<TRIPOS>MOLECULE
MOL
  192   187     1     0     0
SMALL
resp


@<TRIPOS>ATOM
      1 C1         -4.3700    6.8830    2.7920 c3        1 MOL     -0.324564
      2 C2         -4.5600    5.4310    2.3740 c         1 MOL      0.694553
      3 O1         -4.6390    4.6020    3.2610 o         1 MOL     -0.587441
      4 H1         -4.8330    7.5380    2.0540 hc        1 MOL      0.083214
      5 H2         -4.8350    7.0450    3.7640 hc        1 MOL      0.083214
      6 H3         -3.3050    7.1060    2.8570 hc        1 MOL      0.083214
      7 N1         -4.4200    5.0390    1.1170 n         1 MOL     -0.567990
      8 C3         -4.4680    3.6410    0.7010 c3        1 MOL      0.177659
      9 C4         -3.0030    3.1100    0.4910 c         1 MOL      0.383614
     10 O2         -2.8030    1.9060    0.2230 o         1 MOL     -0.501686
     11 C5         -5.4200    3.4010   -0.4580 c3        1 MOL     -0.367586
     12 C6         -5.1650    4.3160   -1.6530 c         1 MOL      0.721010
     13 O3         -4.7100    3.8210   -2.7110 o         1 MOL     -0.704670
     14 O4         -5.3170    5.5560   -1.5250 o         1 MOL     -0.704670
     15 H4         -4.3940    5.7580    0.4090 hn        1 MOL      0.324609
     16 H5         -4.8600    2.9650    1.4570 h1        1 MOL      0.083787
     17 H6         -6.4570    3.4760   -0.1370 hc        1 MOL      0.111321
     18 H7         -5.2970    2.3500   -0.7150 hc        1 MOL      0.111321
     19 N2         -1.9290    3.9130    0.5770 n         1 MOL     -0.206326
     20 C7         -0.6260    3.4300    0.2020 c3        1 MOL      0.034513
     21 C8          0.3090    3.1880    1.3900 c         1 MOL      0.470148
     22 O5          0.0880    3.7500    2.4800 o         1 MOL     -0.529202
     23 C9         -0.1590    4.5940   -0.7090 c3        1 MOL      0.116403
     24 C10        -0.8580    4.8800   -2.0900 c3        1 MOL     -0.129364
     25 C11        -0.9760    3.5910   -2.8740 c3        1 MOL      0.081542
     26 C12        -1.5410    3.8010   -4.2460 c3        1 MOL     -0.023358
     27 N3         -2.8130    4.5800   -4.3350 n4        1 MOL     -0.292632
     28 H8         -2.1280    4.8630    0.8430 hn        1 MOL      0.196690
     29 H9         -0.6160    2.5260   -0.4080 h1        1 MOL      0.134850
     30 H10         0.8960    4.4480   -0.9430 hc        1 MOL     -0.003515
     31 H11        -0.1100    5.5650   -0.2130 hc        1 MOL     -0.003515
     32 H12        -0.2710    5.5870   -2.6770 hc        1 MOL      0.018650
     33 H13        -1.8250    5.2450   -1.7470 hc        1 MOL      0.018650
     34 H14        -1.5710    2.8470   -2.3430 hc        1 MOL      0.052418
     35 H15        -0.0010    3.1640   -3.0780 hc        1 MOL      0.052418
     36 H16        -1.7140    2.7830   -4.6050 hx        1 MOL      0.061076
     37 H17        -0.9120    4.1970   -5.0430 hx        1 MOL      0.061076
     38 H18        -3.5340    4.0940   -3.8150 hn        1 MOL      0.283276
     39 H19        -2.6620    5.4520   -3.8710 hn        1 MOL      0.283276
     40 H20        -2.9210    4.8940   -5.2860 hn        1 MOL      0.283276
     41 N4          1.3540    2.3210    1.3040 n         1 MOL     -0.506522
     42 C13         1.5850    1.3030    0.3050 c3        1 MOL      0.081457
     43 C14         2.0940    1.8070   -1.0450 c         1 MOL      0.193557
     44 O6          1.4970    1.5670   -2.0370 o         1 MOL     -0.513516
     45 C15         0.5290    0.1520    0.3690 c3        1 MOL      0.467361
     46 C16         0.4450   -0.4830    1.8240 c         1 MOL      0.700275
     47 O7         -0.6990   -0.6400    2.3500 o         1 MOL     -0.835384
     48 O8          1.4020   -0.7950    2.4780 o         1 MOL     -0.835384
     49 H21         1.9020    2.1890    2.1430 hn        1 MOL      0.326964
     50 H22         2.4710    0.7700    0.6400 h1        1 MOL      0.100534
     51 H23         0.8420   -0.6370   -0.3130 hc        1 MOL     -0.190413
     52 H24        -0.4420    0.4640   -0.0130 hc        1 MOL     -0.190413
     53 N5          3.2790    2.4250   -1.2310 n         1 MOL     -0.262794
     54 C17         4.4690    2.5840   -0.3540 c3        1 MOL      0.072952
     55 C18         5.5030    3.4960   -1.0350 c         1 MOL      0.407996
     56 O9          5.2890    4.0240   -2.1520 o         1 MOL     -0.556144
     57 H25         3.4630    2.8310   -2.1350 hn        1 MOL      0.263920
     58 H26         4.8740    1.6170   -0.0670 h1        1 MOL      0.030973
     59 H27         4.1490    3.0640    0.5710 h1        1 MOL      0.030973
     60 N6          6.6360    3.7520   -0.4560 n         1 MOL     -0.392320
     61 C19         7.1550    3.2060    0.8000 c3        1 MOL      0.194393
     62 C20         7.9760    1.9240    0.3990 c         1 MOL      0.372687
     63 O10         8.0900    1.5960   -0.7860 o         1 MOL     -0.460880
     64 C21         7.8880    4.3290    1.5350 c3        1 MOL     -0.315258
     65 C22         9.1520    4.9480    0.7940 c         1 MOL      0.688605
     66 O11         9.3290    6.1210    1.1040 o         1 MOL     -0.640320
     67 O12         9.7490    4.3720   -0.0700 o         1 MOL     -0.640320
     68 H28         7.2200    4.4240   -0.9350 hn        1 MOL      0.358207
     69 H29         6.3350    2.8270    1.4120 h1        1 MOL     -0.017338
     70 H30         8.2130    3.8850    2.4830 hc        1 MOL      0.053424
     71 H31         7.1410    5.0730    1.8050 hc        1 MOL      0.053424
     72 N7          8.5610    1.2510    1.3240 n         1 MOL     -0.211249
     73 C23         9.2500   -0.0200    1.0250 c3        1 MOL     -0.308638
     74 C24         8.4360   -1.1390    0.3900 c         1 MOL      0.543684
     75 O13         9.0090   -1.9420   -0.3700 o         1 MOL     -0.545211
     76 H32         8.4420    1.6140    2.2590 hn        1 MOL      0.232695
     77 H33         9.5650   -0.3770    2.0060 h1        1 MOL      0.160348
     78 H34        10.0660    0.1310    0.3160 h1        1 MOL      0.160348
     79 N8          7.2010   -1.3940    0.8550 n         1 MOL     -0.373039
     80 C25         6.3330   -2.4890    0.3430 c3        1 MOL      0.159203
     81 C26         4.9370   -1.9690   -0.1010 c         1 MOL      0.463243
     82 O14         4.4030   -1.0440    0.4100 o         1 MOL     -0.475729
     83 C27         6.1480   -3.4670    1.5200 c3        1 MOL      0.304452
     84 C28         7.4950   -4.0660    1.9330 c3        1 MOL     -0.448412
     85 O15         5.2640   -4.5870    1.0970 oh        1 MOL     -0.591050
     86 H35         6.8740   -0.7410    1.5670 hn        1 MOL      0.205540
     87 H36         6.7650   -3.0770   -0.4610 h1        1 MOL      0.091752
     88 H37         5.7740   -2.9360    2.4000 h1        1 MOL     -0.003641
     89 H38         4.5810   -4.6370    1.7740 ho        1 MOL      0.362178
     90 H39         7.9600   -4.4290    1.0220 hc        1 MOL      0.124606
     91 H40         8.1630   -3.2990    2.3320 hc        1 MOL      0.124606
     92 H41         7.4010   -4.8640    2.6760 hc        1 MOL      0.124606
     93 N9          4.3750   -2.7030   -1.0960 n         1 MOL     -0.508880
     94 C29         3.2000   -2.2310   -2.0280 c3        1 MOL     -0.246001
     95 C30         2.0340   -3.2820   -2.2190 c         1 MOL      0.556408
     96 O16         1.3700   -3.4200   -3.2600 o         1 MOL     -0.524261
     97 C31         3.7080   -1.7790   -3.3930 c3        1 MOL      0.249995
     98 C32         4.4910   -2.8360   -4.2440 c3        1 MOL     -0.084256
     99 C33         4.5260   -0.4920   -3.2120 c3        1 MOL     -0.281878
    100 C34         4.5560   -2.5140   -5.7000 c3        1 MOL     -0.069925
    101 H42         4.7850   -3.5850   -1.3450 hn        1 MOL      0.275726
    102 H43         2.7400   -1.3540   -1.5710 h1        1 MOL      0.235398
    103 H44         2.8540   -1.4740   -3.9980 hc        1 MOL     -0.007343
    104 H45         3.9830   -3.8000   -4.3170 hc        1 MOL      0.046481
    105 H46         5.5110   -2.9870   -3.9010 hc        1 MOL      0.046481
    106 H47         3.9750    0.0810   -2.4710 hc        1 MOL      0.086905
    107 H48         5.5310   -0.8010   -2.9200 hc        1 MOL      0.086905
    108 H49         4.4690    0.0290   -4.1670 hc        1 MOL      0.086905
    109 H50         5.1030   -1.6100   -5.9390 hc        1 MOL      0.018724
    110 H51         5.1070   -3.2750   -6.2530 hc        1 MOL      0.018724
    111 H52         3.5750   -2.4260   -6.1570 hc        1 MOL      0.018724
    112 N10         1.7180   -4.0160   -1.1550 n         1 MOL     -0.484547
    113 C35         0.5700   -4.9860   -0.9770 c3        1 MOL      0.063224
    114 C36        -0.7830   -4.2720   -0.8140 c         1 MOL      0.633606
    115 O17        -1.5260   -4.2630    0.2210 o         1 MOL     -0.577912
    116 C37         0.9270   -5.8960    0.2230 c3        1 MOL      0.115488
    117 C38         2.3170   -6.5080    0.1630 c3        1 MOL     -0.075216
    118 O18         0.0590   -6.9850    0.2470 oh        1 MOL     -0.581174
    119 H53         2.3410   -3.8500   -0.3760 hn        1 MOL      0.325540
    120 H54         0.5040   -5.5950   -1.8730 h1        1 MOL      0.130986
    121 H55         0.9110   -5.3410    1.1630 h1        1 MOL     -0.056995
    122 H56         0.2720   -7.4780    1.0400 ho        1 MOL      0.398363
    123 H57         2.5380   -7.0080   -0.7790 hc        1 MOL      0.036430
    124 H58         3.1740   -5.8850    0.4320 hc        1 MOL      0.036430
    125 H59         2.3600   -7.3860    0.8220 hc        1 MOL      0.036430
    126 N11        -1.1300   -3.5120   -1.8540 n         1 MOL     -0.582170
    127 C39        -1.9800   -2.3230   -1.7670 c3        1 MOL      0.392239
    128 C40        -3.4670   -2.6740   -2.0390 c         1 MOL      0.600377
    129 O19        -3.7560   -3.5530   -2.8110 o         1 MOL     -0.541712
    130 C41        -1.3940   -1.2870   -2.7530 c3        1 MOL      0.047387
    131 C42        -2.0480    0.1430   -2.8000 c3        1 MOL     -0.097555
    132 O20        -1.4920   -1.7460   -4.1120 oh        1 MOL     -0.622261
    133 H60        -0.4760   -3.5040   -2.6340 hn        1 MOL      0.282047
    134 H61        -1.7360   -1.9660   -0.7700 h1        1 MOL      0.026142
    135 H62        -0.3350   -1.0720   -2.5960 h1        1 MOL      0.096280
    136 H63        -1.0020   -1.1220   -4.6570 ho        1 MOL      0.404506
    137 H64        -3.0330    0.0970   -3.2720 hc        1 MOL      0.002769
    138 H65        -2.0100    0.5770   -1.8060 hc        1 MOL      0.002769
    139 H66        -1.4210    0.7670   -3.4280 hc        1 MOL      0.002769
    140 N12        -4.3550   -2.0530   -1.2680 n         1 MOL     -0.483614
    141 C43        -5.8170   -2.3380   -1.2740 c3        1 MOL      0.017511
    142 C44        -6.4420   -2.2980    0.1540 c         1 MOL      0.513164
    143 O21        -7.5000   -2.8800    0.2760 o         1 MOL     -0.518448
    144 C45        -6.6150   -1.3230   -2.1380 c3        1 MOL     -0.309298
    145 C46        -6.4180   -1.5180   -3.6670 c3        1 MOL      0.124360
    146 C47        -7.3280   -0.8190   -4.6350 c3        1 MOL      0.055645
    147 C48        -7.4590   -1.3980   -6.0140 c3        1 MOL     -0.134385
    148 N13        -6.1400   -1.4410   -6.6400 n4        1 MOL     -0.158951
    149 H67        -3.9710   -1.6540   -0.4210 hn        1 MOL      0.192352
    150 H68        -5.9500   -3.3310   -1.7070 h1        1 MOL      0.116515
    151 H69        -6.5270   -0.2880   -1.8030 hc        1 MOL      0.104562
    152 H70        -7.6460   -1.5840   -1.8840 hc        1 MOL      0.104562
    153 H71        -6.4670   -2.5830   -3.8950 hc        1 MOL      0.015521
    154 H72        -5.3910   -1.1600   -3.8190 hc        1 MOL      0.015521
    155 H73        -7.0640    0.2270   -4.7020 hc        1 MOL      0.020194
    156 H74        -8.3000   -0.7390   -4.1550 hc        1 MOL      0.020194
    157 H75        -8.0650   -0.7390   -6.6330 hx        1 MOL      0.115183
    158 H76        -7.9330   -2.3730   -5.9180 hx        1 MOL      0.115183
    159 H77        -5.7420   -0.5150   -6.7130 hn        1 MOL      0.252406
    160 H78        -5.4450   -2.0650   -6.2610 hn        1 MOL      0.252406
    161 H79        -6.2390   -1.8000   -7.5870 hn        1 MOL      0.252406
    162 N14        -5.7290   -1.7520    1.1770 n         1 MOL     -0.294103
    163 C49        -6.4900   -1.2800    2.3690 c3        1 MOL     -0.137600
    164 C50        -7.2400    0.0330    2.2030 c         1 MOL      0.374420
    165 O22        -6.6190    0.9780    1.7460 o         1 MOL     -0.457337
    166 C51        -5.4730   -0.9630    3.4840 c3        1 MOL      0.265662
    167 C52        -4.7680   -2.1310    4.1190 c3        1 MOL     -0.361464
    168 C53        -3.6910   -1.8160    5.1280 c         1 MOL      0.838723
    169 O23        -3.8210   -0.8620    5.9140 o         1 MOL     -0.744505
    170 O24        -2.6000   -2.4700    5.1510 o         1 MOL     -0.744505
    171 H80        -4.8940   -1.2090    1.0070 hn        1 MOL      0.313102
    172 H81        -7.1970   -1.9960    2.7880 h1        1 MOL      0.086542
    173 H82        -6.0990   -0.4620    4.2190 hc        1 MOL     -0.004779
    174 H83        -4.6880   -0.2730    3.1640 hc        1 MOL     -0.004779
    175 H84        -4.3400   -2.7480    3.3190 hc        1 MOL      0.048553
    176 H85        -5.5010   -2.7230    4.6640 hc        1 MOL      0.048553
    177 N15        -8.5120    0.1090    2.5350 n         1 MOL     -0.241568
    178 C54        -9.2810    1.3590    2.6180 c3        1 MOL     -0.115557
    179 H86        -8.9600    2.0360    1.8260 h1        1 MOL      0.084852
    180 H87       -10.3430    1.1410    2.4990 h1        1 MOL      0.084852
    181 H88        -9.1110    1.8270    3.5870 h1        1 MOL      0.084852
    182 H89        -8.9760   -0.7520    2.7920 hn        1 MOL      0.243141
    183 Ca1        -0.1990   -1.9690    4.4430 Ca        1 MOL      1.828970
    184 O25         0.2150   -2.5450    7.0990 oh        1 MOL     -0.993643
    185 H90        -0.3370   -2.2000    7.8040 ho        1 MOL      0.480433
    186 H91         1.0850   -2.6070    7.4960 ho        1 MOL      0.480433
    187 O26        -1.5190    0.3110    5.4710 oh        1 MOL     -0.993643
    188 H92        -1.6710    1.2030    5.1660 ho        1 MOL      0.480433
    189 H93        -2.3680    0.0150    5.7810 ho        1 MOL      0.480433
    190 O27        -0.4030   -4.0490    2.9030 oh        1 MOL     -0.993643
    191 H94        -0.8310   -4.1980    2.0580 ho        1 MOL      0.480433
    192 H95         0.1040   -4.8440    3.0550 ho        1 MOL      0.480433
@<TRIPOS>BOND
     1    1    2 1   
     2    1    4 1   
     3    1    5 1   
     4    1    6 1   
     5    2    3 2   
     6    2    7 1   
     7    7    8 1   
     8    7   15 1   
     9    8    9 1   
    10    8   11 1   
    11    8   16 1   
    12    9   10 2   
    13    9   19 1   
    14   11   12 1   
    15   11   17 1   
    16   11   18 1   
    17   12   13 1   
    18   12   14 1   
    19   19   20 1   
    20   19   28 1   
    21   20   21 1   
    22   20   23 1   
    23   20   29 1   
    24   21   22 2   
    25   21   41 1   
    26   23   24 1   
    27   23   30 1   
    28   23   31 1   
    29   24   25 1   
    30   24   32 1   
    31   24   33 1   
    32   25   26 1   
    33   25   34 1   
    34   25   35 1   
    35   26   27 1   
    36   26   36 1   
    37   26   37 1   
    38   27   38 1   
    39   27   39 1   
    40   27   40 1   
    41   41   42 1   
    42   41   49 1   
    43   42   43 1   
    44   42   45 1   
    45   42   50 1   
    46   43   44 2   
    47   43   53 1   
    48   45   46 1   
    49   45   51 1   
    50   45   52 1   
    51   46   47 1   
    52   46   48 1   
    53   53   54 1   
    54   53   57 1   
    55   54   55 1   
    56   54   58 1   
    57   54   59 1   
    58   55   56 2   
    59   55   60 1   
    60   60   61 1   
    61   60   68 1   
    62   61   62 1   
    63   61   64 1   
    64   61   69 1   
    65   62   63 2   
    66   62   72 1   
    67   64   65 1   
    68   64   70 1   
    69   64   71 1   
    70   65   66 1   
    71   65   67 1   
    72   72   73 1   
    73   72   76 1   
    74   73   74 1   
    75   73   77 1   
    76   73   78 1   
    77   74   75 2   
    78   74   79 1   
    79   79   80 1   
    80   79   86 1   
    81   80   81 1   
    82   80   83 1   
    83   80   87 1   
    84   81   82 2   
    85   81   93 1   
    86   83   84 1   
    87   83   85 1   
    88   83   88 1   
    89   84   90 1   
    90   84   91 1   
    91   84   92 1   
    92   85   89 1   
    93   93   94 1   
    94   93  101 1   
    95   94   95 1   
    96   94   97 1   
    97   94  102 1   
    98   95   96 2   
    99   95  112 1   
   100   97   98 1   
   101   97   99 1   
   102   97  103 1   
   103   98  100 1   
   104   98  104 1   
   105   98  105 1   
   106   99  106 1   
   107   99  107 1   
   108   99  108 1   
   109  100  109 1   
   110  100  110 1   
   111  100  111 1   
   112  112  113 1   
   113  112  119 1   
   114  113  114 1   
   115  113  116 1   
   116  113  120 1   
   117  114  115 2   
   118  114  126 1   
   119  116  117 1   
   120  116  118 1   
   121  116  121 1   
   122  117  123 1   
   123  117  124 1   
   124  117  125 1   
   125  118  122 1   
   126  126  127 1   
   127  126  133 1   
   128  127  128 1   
   129  127  130 1   
   130  127  134 1   
   131  128  129 2   
   132  128  140 1   
   133  130  131 1   
   134  130  132 1   
   135  130  135 1   
   136  131  137 1   
   137  131  138 1   
   138  131  139 1   
   139  132  136 1   
   140  140  141 1   
   141  140  149 1   
   142  141  142 1   
   143  141  144 1   
   144  141  150 1   
   145  142  143 2   
   146  142  162 1   
   147  144  145 1   
   148  144  151 1   
   149  144  152 1   
   150  145  146 1   
   151  145  153 1   
   152  145  154 1   
   153  146  147 1   
   154  146  155 1   
   155  146  156 1   
   156  147  148 1   
   157  147  157 1   
   158  147  158 1   
   159  148  159 1   
   160  148  160 1   
   161  148  161 1   
   162  162  163 1   
   163  162  171 1   
   164  163  164 1   
   165  163  166 1   
   166  163  172 1   
   167  164  165 2   
   168  164  177 1   
   169  166  167 1   
   170  166  173 1   
   171  166  174 1   
   172  167  168 1   
   173  167  175 1   
   174  167  176 1   
   175  168  169 1   
   176  168  170 1   
   177  177  178 1   
   178  177  182 1   
   179  178  179 1   
   180  178  180 1   
   181  178  181 1   
   182  184  185 1   
   183  184  186 1   
   184  187  188 1   
   185  187  189 1   
   186  190  191 1   
   187  190  192 1   
@<TRIPOS>SUBSTRUCTURE
     1 MOL         1 TEMP              0 ****  ****    0 ROOT
