@<TRIPOS>MOLECULE
MOL
  181   177     1     0     0
SMALL
resp


@<TRIPOS>ATOM
      1 C1          1.2030    6.7420   -1.7550 c3        1 MOL     -0.421019
      2 C2          2.6160    6.3760   -1.2400 c         1 MOL      0.801951
      3 O1          3.1940    7.0700   -0.4330 o         1 MOL     -0.601110
      4 H1          0.4590    6.4290   -1.0240 hc        1 MOL      0.103538
      5 H2          1.1370    7.8210   -1.9000 hc        1 MOL      0.103538
      6 H3          1.0180    6.2360   -2.7020 hc        1 MOL      0.103538
      7 N1          3.2330    5.2910   -1.7560 n         1 MOL     -0.688759
      8 C3          4.6090    4.8960   -1.4390 c3        1 MOL      0.238182
      9 C4          4.7760    3.8320   -0.2960 c         1 MOL      0.616442
     10 O2          4.0860    2.8250   -0.3800 o         1 MOL     -0.614728
     11 C5          5.3180    4.5070   -2.8160 c3        1 MOL     -0.192156
     12 C6          6.8400    4.6810   -2.7880 c         1 MOL      0.663750
     13 O3          7.5630    3.6520   -2.8200 o         1 MOL     -0.718730
     14 O4          7.3400    5.8270   -2.6180 o         1 MOL     -0.718730
     15 H4          2.8620    4.7300   -2.5110 hn        1 MOL      0.312548
     16 H5          5.1900    5.7890   -1.2180 h1        1 MOL      0.034060
     17 H6          4.9090    5.1390   -3.5980 hc        1 MOL      0.013791
     18 H7          5.0880    3.4830   -3.0910 hc        1 MOL      0.013791
     19 N2          5.5000    4.0590    0.8500 n         1 MOL     -0.627828
     20 C7          5.4260    3.1780    2.0510 c3        1 MOL      0.652642
     21 C8          4.1030    3.2600    2.7830 c         1 MOL      0.369938
     22 O5          3.4190    4.2530    2.6530 o         1 MOL     -0.540746
     23 C9          6.5030    3.6830    2.9110 c3        1 MOL     -0.552087
     24 H8          6.1080    4.8530    0.9830 hn        1 MOL      0.309650
     25 H9          5.6260    2.1240    1.8390 h1        1 MOL     -0.059109
     26 H10         7.4620    3.2980    2.5640 hc        1 MOL      0.129309
     27 H11         6.4380    4.7700    3.0050 hc        1 MOL      0.129309
     28 H12         6.3010    3.5350    3.9730 hc        1 MOL      0.129309
     29 N3          3.6530    2.2090    3.4470 n         1 MOL     -0.406589
     30 C10         4.4150    0.9800    3.7730 c3        1 MOL     -0.026069
     31 C11         4.5510   -0.0890    2.5510 c         1 MOL      0.494271
     32 O6          3.6080   -0.2670    1.7190 o         1 MOL     -0.477067
     33 C12         3.7330    0.3300    4.9970 c3        1 MOL     -0.038365
     34 C13         2.2360    0.0140    4.8810 c         1 MOL      0.657958
     35 O7          1.5770    0.4180    3.9330 o         1 MOL     -0.679661
     36 O8          1.6800   -0.5300    5.8800 o         1 MOL     -0.679661
     37 H13         2.7620    2.3080    3.9170 hn        1 MOL      0.339973
     38 H14         5.4190    1.2390    4.1160 h1        1 MOL      0.014629
     39 H15         3.8900    0.8520    5.9460 hc        1 MOL     -0.002844
     40 H16         4.1110   -0.6630    5.2460 hc        1 MOL     -0.002844
     41 N4          5.7480   -0.7330    2.3590 n         1 MOL     -0.511810
     42 C14         6.0370   -1.6180    1.2050 c3        1 MOL      0.046523
     43 C15         6.7330   -0.8950    0.0070 c         1 MOL      0.629301
     44 O9          7.2060    0.2330    0.1390 o         1 MOL     -0.472145
     45 H17         6.5050   -0.6000    3.0030 hn        1 MOL      0.316714
     46 H18         5.0740   -2.0310    0.8980 h1        1 MOL      0.030213
     47 H19         6.7130   -2.4380    1.4340 h1        1 MOL      0.030213
     48 N5          6.9350   -1.6570   -1.1230 n         1 MOL     -0.767720
     49 C16         6.5470   -3.0420   -1.4570 c3        1 MOL      0.329240
     50 C17         5.4030   -3.1590   -2.5220 c         1 MOL      0.543100
     51 O10         5.3680   -4.1760   -3.2250 o         1 MOL     -0.515740
     52 C18         7.7700   -3.7910   -1.9370 c3        1 MOL     -0.307127
     53 C19         8.9420   -3.6740   -1.0170 c         1 MOL      0.703858
     54 N6          8.8880   -4.0330    0.2650 n         1 MOL     -0.801495
     55 O11        10.0380   -3.2950   -1.4350 o         1 MOL     -0.553511
     56 H20         7.6240   -1.1610   -1.6650 hn        1 MOL      0.376575
     57 H21         6.2180   -3.6230   -0.6120 h1        1 MOL     -0.026915
     58 H22         8.1170   -3.3840   -2.8890 hc        1 MOL      0.088198
     59 H23         7.5020   -4.8350   -2.1050 hc        1 MOL      0.088198
     60 H24         8.0670   -4.4810    0.6500 hn        1 MOL      0.364612
     61 H25         9.7440   -3.9640    0.7960 hn        1 MOL      0.364612
     62 N7          4.6040   -2.0940   -2.7510 n         1 MOL     -0.399142
     63 C20         3.4430   -2.1860   -3.6570 c3        1 MOL     -0.210260
     64 C21         2.1910   -2.9150   -3.0480 c         1 MOL      0.585277
     65 O12         1.2020   -3.0300   -3.7790 o         1 MOL     -0.579742
     66 H26         4.9720   -1.1730   -2.5770 hn        1 MOL      0.323342
     67 H27         3.6960   -2.7770   -4.5430 h1        1 MOL      0.134250
     68 H28         3.1670   -1.1780   -3.9710 h1        1 MOL      0.134250
     69 N8          2.3090   -3.4130   -1.8270 n         1 MOL     -0.233759
     70 C22         1.4210   -4.2990   -1.1140 c3        1 MOL     -0.034907
     71 C23         0.1710   -3.5330   -0.7360 c         1 MOL      0.527343
     72 O13         0.2330   -2.7170    0.2220 o         1 MOL     -0.638880
     73 C24         2.0910   -4.7160    0.1970 c3        1 MOL      0.418220
     74 C25         1.1800   -5.6310    0.9290 c3        1 MOL     -0.562488
     75 O14         3.2490   -5.4710   -0.0650 oh        1 MOL     -0.634406
     76 H29         3.2310   -3.4270   -1.4300 hn        1 MOL      0.119089
     77 H30         1.2310   -5.1760   -1.7430 h1        1 MOL      0.093294
     78 H31         2.2870   -3.9610    0.9570 h1        1 MOL      0.006999
     79 H32         3.4540   -6.0290    0.6900 ho        1 MOL      0.386884
     80 H33         0.9610   -6.3800    0.1610 hc        1 MOL      0.142935
     81 H34         1.7950   -6.0750    1.7070 hc        1 MOL      0.142935
     82 H35         0.2790   -5.2190    1.3820 hc        1 MOL      0.142935
     83 N9         -0.9490   -3.8420   -1.3910 n         1 MOL     -0.380173
     84 C26        -2.2610   -3.1480   -1.2690 c3        1 MOL     -0.165707
     85 C27        -2.8400   -3.4540    0.1220 c         1 MOL      0.476560
     86 O15        -3.0420   -4.6170    0.3950 o         1 MOL     -0.575858
     87 C28        -3.1730   -3.4330   -2.4940 c3        1 MOL      0.150020
     88 C29        -4.4960   -2.7420   -2.3400 c3        1 MOL      0.110349
     89 C30        -2.4340   -3.0350   -3.8000 c3        1 MOL     -0.140335
     90 C31        -5.5770   -3.2920   -3.2740 c3        1 MOL     -0.337407
     91 H36        -0.9190   -4.6130   -2.0340 hn        1 MOL      0.272609
     92 H37        -2.1150   -2.0650   -1.3310 h1        1 MOL      0.260184
     93 H38        -3.4260   -4.4890   -2.6140 hc        1 MOL      0.008969
     94 H39        -4.4410   -1.6660   -2.5430 hc        1 MOL      0.018015
     95 H40        -4.8870   -2.8890   -1.3250 hc        1 MOL      0.018015
     96 H41        -2.0590   -2.0140   -3.8110 hc        1 MOL      0.027370
     97 H42        -1.6310   -3.7410   -3.9950 hc        1 MOL      0.027370
     98 H43        -3.1240   -3.0920   -4.6390 hc        1 MOL      0.027370
     99 H44        -5.3030   -3.2030   -4.3280 hc        1 MOL      0.066748
    100 H45        -5.7460   -4.3470   -3.0630 hc        1 MOL      0.066748
    101 H46        -6.5250   -2.7880   -3.0590 hc        1 MOL      0.066748
    102 N10        -3.1640   -2.4400    0.9410 n         1 MOL     -0.159084
    103 C32        -4.0030   -2.6600    2.1480 c3        1 MOL      0.040211
    104 C33        -5.3040   -1.8180    2.1360 c         1 MOL      0.365304
    105 O16        -6.1510   -1.8610    3.1170 o         1 MOL     -0.532000
    106 C34        -3.2710   -2.4810    3.4220 c3        1 MOL     -0.128260
    107 C35        -2.2460   -1.4180    3.4480 c         1 MOL      0.734809
    108 O17        -1.0760   -1.6280    3.0410 o         1 MOL     -0.699199
    109 O18        -2.5630   -0.3650    4.0510 o         1 MOL     -0.699199
    110 H47        -3.0480   -1.5090    0.5890 hn        1 MOL      0.185068
    111 H48        -4.3890   -3.6760    2.1060 h1        1 MOL      0.089974
    112 H49        -2.7380   -3.4320    3.4810 hc        1 MOL      0.029761
    113 H50        -3.9590   -2.3150    4.2520 hc        1 MOL      0.029761
    114 N11        -5.5640   -1.2060    0.9610 n         1 MOL     -0.300053
    115 C36        -6.7460   -0.3830    0.7370 c3        1 MOL      0.413255
    116 C37        -6.4420    1.0680    0.2370 c         1 MOL      0.385351
    117 O19        -6.8360    1.2670   -0.9060 o         1 MOL     -0.545484
    118 C38        -7.8750   -1.1260    0.0600 c3        1 MOL     -0.286335
    119 C39        -9.2650   -0.4770    0.3080 ca        1 MOL      0.135961
    120 C40        -9.9110   -0.6710    1.5300 ca        1 MOL     -0.203306
    121 C41        -9.8140    0.3460   -0.7170 ca        1 MOL     -0.203306
    122 C42       -11.0970    0.0920    1.7400 ca        1 MOL     -0.081689
    123 C43       -10.9850    1.0630   -0.4330 ca        1 MOL     -0.081689
    124 C44       -11.6040    0.9490    0.7970 ca        1 MOL     -0.159629
    125 H51        -4.8570   -1.2170    0.2550 hn        1 MOL      0.021655
    126 H52        -7.1150   -0.0870    1.7180 h1        1 MOL     -0.024370
    127 H53        -7.9730   -2.1200    0.4930 hc        1 MOL      0.087301
    128 H54        -7.7200   -1.2530   -1.0090 hc        1 MOL      0.087301
    129 H55        -9.5800   -1.2750    2.3600 ha        1 MOL      0.140560
    130 H56        -9.3130    0.3950   -1.6760 ha        1 MOL      0.140560
    131 H57       -11.5760    0.0680    2.7040 ha        1 MOL      0.089702
    132 H58       -11.5010    1.6880   -1.1450 ha        1 MOL      0.089702
    133 H59       -12.4740    1.5540    1.0160 ha        1 MOL      0.101949
    134 N12        -5.6040    1.8870    0.8850 n         1 MOL     -0.055609
    135 C45        -5.2620    3.2300    0.4130 c3        1 MOL     -0.085701
    136 C46        -4.5630    3.2740   -0.9560 c         1 MOL      0.221637
    137 O20        -4.6110    4.4530   -1.4800 o         1 MOL     -0.521578
    138 C47        -4.2960    3.7920    1.5150 c3        1 MOL     -0.007687
    139 C48        -4.9110    3.1540    2.7610 c3        1 MOL     -0.037839
    140 C49        -5.3070    1.7620    2.3170 c3        1 MOL     -0.086533
    141 H60        -6.2110    3.7620    0.4000 h1        1 MOL      0.119525
    142 H61        -3.2640    3.4470    1.4570 hc        1 MOL      0.048969
    143 H62        -4.3640    4.8650    1.6440 hc        1 MOL      0.048969
    144 H63        -4.2170    3.2040    3.5950 hc        1 MOL      0.032811
    145 H64        -5.7880    3.7520    3.0210 hc        1 MOL      0.032811
    146 H65        -4.4950    1.0340    2.4590 h1        1 MOL      0.068085
    147 H66        -6.1900    1.3850    2.8170 h1        1 MOL      0.068085
    148 N13        -3.9510    2.2900   -1.6110 n         1 MOL     -0.001848
    149 C50        -3.3820    2.3620   -2.9580 c3        1 MOL     -0.145232
    150 C51        -4.5570    2.3210   -3.9640 c         1 MOL      0.456830
    151 O21        -4.6950    3.1040   -4.8920 o         1 MOL     -0.541961
    152 C52        -2.4840    1.1130   -3.1290 c3        1 MOL      0.048219
    153 C53        -1.4570    0.9630   -1.9730 c3        1 MOL      0.002450
    154 C54        -1.9520    0.3320   -0.6560 c         1 MOL      0.476917
    155 O22        -1.0730    0.1230    0.1950 o         1 MOL     -0.602631
    156 O23        -3.1390   -0.1140   -0.5980 o         1 MOL     -0.602631
    157 H67        -3.8410    1.4240   -1.1030 hn        1 MOL      0.212638
    158 H68        -2.7940    3.2690   -3.0870 h1        1 MOL      0.104689
    159 H69        -1.8790    1.2400   -4.0330 hc        1 MOL     -0.018575
    160 H70        -3.1310    0.2380   -3.1870 hc        1 MOL     -0.018575
    161 H71        -0.9300    1.8870   -1.7440 hc        1 MOL     -0.000387
    162 H72        -0.6460    0.2980   -2.2720 hc        1 MOL     -0.000387
    163 N14        -5.4300    1.3100   -3.8010 n         1 MOL     -0.067769
    164 C55        -6.6150    1.1260   -4.5840 c3        1 MOL     -0.263135
    165 H73        -7.4410    0.8440   -3.9320 h1        1 MOL      0.095944
    166 H74        -6.8590    2.0550   -5.0970 h1        1 MOL      0.095944
    167 H75        -6.4470    0.3380   -5.3180 h1        1 MOL      0.095944
    168 H76        -5.2120    0.6060   -3.1010 hn        1 MOL      0.144641
    169 Ca1         0.9090   -0.5520    1.6870 Ca        1 MOL      1.713818
    170 O24        -1.0640    1.3290    2.4120 oh        1 MOL     -0.859195
    171 O25         1.5540    2.2550    1.1820 oh        1 MOL     -0.859195
    172 H77        -1.5750    0.9610    3.1370 ho        1 MOL      0.417585
    173 H78         2.3110    2.4390    0.6310 ho        1 MOL      0.417585
    174 H79        -1.3520    0.8280    1.6460 ho        1 MOL      0.417585
    175 H80         1.3410    3.0920    1.5830 ho        1 MOL      0.417585
    176 O26         1.8160   -0.0550   -0.8500 oh        1 MOL     -0.859195
    177 H81         1.1180    0.4760   -1.2320 ho        1 MOL      0.417585
    178 H82         2.6220    0.3410   -1.1780 ho        1 MOL      0.417585
    179 O27         1.8400   -2.7090    2.8980 oh        1 MOL     -0.859195
    180 H83         2.7130   -3.0850    2.9000 ho        1 MOL      0.417585
    181 H84         1.3510   -3.2330    3.5330 ho        1 MOL      0.417585
@<TRIPOS>BOND
     1    1    2 1   
     2    1    4 1   
     3    1    5 1   
     4    1    6 1   
     5    2    3 2   
     6    2    7 1   
     7    7    8 1   
     8    7   15 1   
     9    8    9 1   
    10    8   11 1   
    11    8   16 1   
    12    9   10 2   
    13    9   19 1   
    14   11   12 1   
    15   11   17 1   
    16   11   18 1   
    17   12   13 1   
    18   12   14 1   
    19   19   20 1   
    20   19   24 1   
    21   20   21 1   
    22   20   23 1   
    23   20   25 1   
    24   21   22 2   
    25   21   29 1   
    26   23   26 1   
    27   23   27 1   
    28   23   28 1   
    29   29   30 1   
    30   29   37 1   
    31   30   31 1   
    32   30   33 1   
    33   30   38 1   
    34   31   32 2   
    35   31   41 1   
    36   33   34 1   
    37   33   39 1   
    38   33   40 1   
    39   34   35 1   
    40   34   36 1   
    41   41   42 1   
    42   41   45 1   
    43   42   43 1   
    44   42   46 1   
    45   42   47 1   
    46   43   44 2   
    47   43   48 1   
    48   48   49 1   
    49   48   56 1   
    50   49   50 1   
    51   49   52 1   
    52   49   57 1   
    53   50   51 2   
    54   50   62 1   
    55   52   53 1   
    56   52   58 1   
    57   52   59 1   
    58   53   54 1   
    59   53   55 2   
    60   54   60 1   
    61   54   61 1   
    62   62   63 1   
    63   62   66 1   
    64   63   64 1   
    65   63   67 1   
    66   63   68 1   
    67   64   65 2   
    68   64   69 1   
    69   69   70 1   
    70   69   76 1   
    71   70   71 1   
    72   70   73 1   
    73   70   77 1   
    74   71   72 2   
    75   71   83 1   
    76   73   74 1   
    77   73   75 1   
    78   73   78 1   
    79   74   80 1   
    80   74   81 1   
    81   74   82 1   
    82   75   79 1   
    83   83   84 1   
    84   83   91 1   
    85   84   85 1   
    86   84   87 1   
    87   84   92 1   
    88   85   86 2   
    89   85  102 1   
    90   87   88 1   
    91   87   89 1   
    92   87   93 1   
    93   88   90 1   
    94   88   94 1   
    95   88   95 1   
    96   89   96 1   
    97   89   97 1   
    98   89   98 1   
    99   90   99 1   
   100   90  100 1   
   101   90  101 1   
   102  102  103 1   
   103  102  110 1   
   104  103  104 1   
   105  103  106 1   
   106  103  111 1   
   107  104  105 2   
   108  104  114 1   
   109  106  107 1   
   110  106  112 1   
   111  106  113 1   
   112  107  108 1   
   113  107  109 1   
   114  114  115 1   
   115  114  125 1   
   116  115  116 1   
   117  115  118 1   
   118  115  126 1   
   119  116  117 2   
   120  116  134 1   
   121  118  119 1   
   122  118  127 1   
   123  118  128 1   
   124  119  120 ar  
   125  119  121 ar  
   126  120  122 ar  
   127  120  129 1   
   128  121  123 ar  
   129  121  130 1   
   130  122  124 ar  
   131  122  131 1   
   132  123  124 ar  
   133  123  132 1   
   134  124  133 1   
   135  134  135 1   
   136  134  140 1   
   137  135  136 1   
   138  135  138 1   
   139  135  141 1   
   140  136  137 2   
   141  136  148 1   
   142  138  139 1   
   143  138  142 1   
   144  138  143 1   
   145  139  140 1   
   146  139  144 1   
   147  139  145 1   
   148  140  146 1   
   149  140  147 1   
   150  148  149 1   
   151  148  157 1   
   152  149  150 1   
   153  149  152 1   
   154  149  158 1   
   155  150  151 2   
   156  150  163 1   
   157  152  153 1   
   158  152  159 1   
   159  152  160 1   
   160  153  154 1   
   161  153  161 1   
   162  153  162 1   
   163  154  155 1   
   164  154  156 1   
   165  163  164 1   
   166  163  168 1   
   167  164  165 1   
   168  164  166 1   
   169  164  167 1   
   170  170  172 1   
   171  170  174 1   
   172  171  173 1   
   173  171  175 1   
   174  176  177 1   
   175  176  178 1   
   176  179  180 1   
   177  179  181 1   
@<TRIPOS>SUBSTRUCTURE
     1 MOL         1 TEMP              0 ****  ****    0 ROOT
