@<TRIPOS>MOLECULE
MOL
  179   176     1     0     0
SMALL
resp


@<TRIPOS>ATOM
      1 C1          3.3880    0.5280    6.0160 c3        1 MOL     -0.467582
      2 C2          3.0540    0.7780    4.5800 c         1 MOL      0.787693
      3 O1          3.8700    0.6140    3.6900 o         1 MOL     -0.595572
      4 H1          2.9950    1.3410    6.6270 hc        1 MOL      0.126758
      5 H2          2.9410   -0.4130    6.3340 hc        1 MOL      0.126758
      6 H3          4.4700    0.4760    6.1340 hc        1 MOL      0.126758
      7 N1          1.8770    1.3980    4.3600 n         1 MOL     -0.646709
      8 C3          1.4050    1.7240    2.9770 c3        1 MOL     -0.077725
      9 C4          2.1410    2.9300    2.4130 c         1 MOL      0.737933
     10 O2          1.9590    4.0630    2.8500 o         1 MOL     -0.560255
     11 C5         -0.0870    1.9750    3.0310 c3        1 MOL      0.076805
     12 C6         -0.7240    1.8610    1.6580 c         1 MOL      0.454001
     13 O3         -1.9540    1.8350    1.6280 o         1 MOL     -0.674102
     14 O4         -0.0670    1.8860    0.5710 o         1 MOL     -0.674102
     15 H4          1.2720    1.6530    5.1290 hn        1 MOL      0.336432
     16 H5          1.6360    0.8980    2.3180 h1        1 MOL     -0.006855
     17 H6         -0.3700    2.9140    3.5090 hc        1 MOL      0.025699
     18 H7         -0.5140    1.1990    3.6730 hc        1 MOL      0.025699
     19 N2          2.8860    2.7160    1.2550 n         1 MOL     -0.530911
     20 C7          3.5090    3.8340    0.4820 c3        1 MOL      0.020257
     21 C8          2.4740    4.8050   -0.1310 c         1 MOL      0.465285
     22 O5          2.7980    5.9820   -0.3510 o         1 MOL     -0.538834
     23 C9          4.2670    3.1580   -0.6730 c3        1 MOL      0.130246
     24 C10         5.1410    4.0730   -1.4510 c3        1 MOL     -0.125728
     25 C11         6.1450    4.8650   -0.6370 c3        1 MOL      0.022483
     26 C12         7.0000    5.6440   -1.6520 c3        1 MOL      0.096738
     27 N3          7.8940    6.4950   -0.8600 n4        1 MOL     -0.353771
     28 H8          2.9550    1.8080    0.8220 hn        1 MOL      0.316900
     29 H9          4.1170    4.4040    1.1800 h1        1 MOL      0.066892
     30 H10         3.6310    2.5620   -1.3190 hc        1 MOL      0.012542
     31 H11         5.0450    2.4880   -0.3040 hc        1 MOL      0.012542
     32 H12         4.6370    4.7930   -2.1020 hc        1 MOL      0.030731
     33 H13         5.6460    3.3470   -2.0900 hc        1 MOL      0.030731
     34 H14         6.7450    4.2680    0.0420 hc        1 MOL      0.021363
     35 H15         5.6600    5.6920   -0.1070 hc        1 MOL      0.021363
     36 H16         6.3820    6.3230   -2.2510 hx        1 MOL      0.070614
     37 H17         7.5610    4.9840   -2.3150 hx        1 MOL      0.070614
     38 H18         8.2950    7.1620   -1.5060 hn        1 MOL      0.311894
     39 H19         7.3190    6.9450   -0.1600 hn        1 MOL      0.311894
     40 H20         8.6450    5.9970   -0.3980 hn        1 MOL      0.311894
     41 N4          1.2760    4.2820   -0.5610 n         1 MOL     -0.317524
     42 C13         0.3340    5.0160   -1.4430 c3        1 MOL      0.028765
     43 C14        -0.8500    5.5850   -0.7140 c         1 MOL      0.408673
     44 O6         -1.5260    6.4040   -1.3010 o         1 MOL     -0.531715
     45 C15        -0.1230    4.1060   -2.5870 c3        1 MOL     -0.227253
     46 C16        -0.7020    2.7540   -2.2710 c         1 MOL      0.838530
     47 O7         -1.8740    2.7110   -1.8710 o         1 MOL     -0.797295
     48 O8          0.0090    1.6810   -2.4690 o         1 MOL     -0.797295
     49 H21         1.0280    3.3340   -0.3220 hn        1 MOL      0.173935
     50 H22         0.8830    5.8460   -1.9020 h1        1 MOL      0.097752
     51 H23         0.6640    3.9310   -3.3230 hc        1 MOL      0.067050
     52 H24        -0.9120    4.6770   -3.0780 hc        1 MOL      0.067050
     53 N5         -1.1470    4.9920    0.4470 n         1 MOL     -0.039657
     54 C17        -2.2730    5.3140    1.2690 c3        1 MOL     -0.584404
     55 C18        -3.6070    4.7580    0.9240 c         1 MOL      0.752403
     56 O9         -4.5700    5.0130    1.6670 o         1 MOL     -0.613901
     57 H25        -0.5200    4.2270    0.6770 hn        1 MOL      0.134628
     58 H26        -2.1870    6.3920    1.3760 h1        1 MOL      0.213801
     59 H27        -2.0620    4.9040    2.2620 h1        1 MOL      0.213801
     60 N6         -3.7920    4.0160   -0.1820 n         1 MOL     -0.508922
     61 C19        -5.1150    3.6600   -0.7380 c3        1 MOL      0.169241
     62 C20        -5.3140    2.1100   -0.7850 c         1 MOL      0.462540
     63 O10        -4.3550    1.3800   -0.9060 o         1 MOL     -0.471061
     64 C21        -5.1790    4.2870   -2.1080 c3        1 MOL     -0.273682
     65 C22        -6.2660    3.7890   -3.0010 c         1 MOL      0.615758
     66 N7         -7.4920    4.1660   -2.7330 n         1 MOL     -0.770084
     67 O11        -5.9700    2.9780   -3.8620 o         1 MOL     -0.535367
     68 H28        -2.9280    3.6060   -0.5300 hn        1 MOL      0.439091
     69 H29        -5.9660    3.9780   -0.1450 h1        1 MOL     -0.002180
     70 H30        -4.1820    4.2270   -2.5450 hc        1 MOL      0.100987
     71 H31        -5.3570    5.3470   -1.9470 hc        1 MOL      0.100987
     72 H32        -7.5840    4.7820   -1.9420 hn        1 MOL      0.359596
     73 H33        -8.2920    3.8870   -3.2800 hn        1 MOL      0.359596
     74 N8         -6.5310    1.6810   -0.6700 n         1 MOL     -0.312737
     75 C23        -7.0180    0.3470   -0.9160 c3        1 MOL     -0.142991
     76 C24        -6.3420   -0.6590    0.0540 c         1 MOL      0.712310
     77 O12        -6.5120   -0.5400    1.2260 o         1 MOL     -0.518793
     78 H34        -7.2220    2.4060   -0.5780 hn        1 MOL      0.255256
     79 H35        -6.7400    0.1280   -1.9520 h1        1 MOL      0.085971
     80 H36        -8.1040    0.2800   -0.9030 h1        1 MOL      0.085971
     81 N9         -5.7080   -1.6230   -0.6210 n         1 MOL     -0.742810
     82 C25        -5.0270   -2.7970    0.1030 c3        1 MOL      0.269394
     83 C26        -3.8220   -2.2140    0.9140 c         1 MOL      0.410471
     84 O13        -3.3220   -1.1330    0.6500 o         1 MOL     -0.463909
     85 C27        -4.6420   -3.9290   -0.8420 c3        1 MOL     -0.034513
     86 C28        -5.7720   -4.6030   -1.5430 ca        1 MOL      0.046602
     87 C29        -6.3150   -4.0330   -2.7270 ca        1 MOL     -0.171165
     88 C30        -6.4050   -5.7630   -0.9670 ca        1 MOL     -0.171165
     89 C31        -7.5090   -4.5990   -3.3250 ca        1 MOL     -0.275480
     90 C32        -7.5740   -6.3050   -1.5540 ca        1 MOL     -0.275480
     91 C33        -8.1480   -5.6810   -2.7220 ca        1 MOL      0.385984
     92 O14        -9.3330   -6.0510   -3.1140 oh        1 MOL     -0.484247
     93 H37        -5.8780   -1.7600   -1.6000 hn        1 MOL      0.357713
     94 H38        -5.7270   -3.2940    0.7690 h1        1 MOL      0.040694
     95 H39        -4.1610   -4.7000   -0.2280 hc        1 MOL     -0.014424
     96 H40        -3.9430   -3.5470   -1.5770 hc        1 MOL     -0.014424
     97 H41        -5.6350   -3.3110   -3.1560 ha        1 MOL      0.132554
     98 H42        -6.1430   -6.1240    0.0170 ha        1 MOL      0.132554
     99 H43        -7.7870   -4.2830   -4.3170 ha        1 MOL      0.160595
    100 H44        -8.0390   -7.1500   -1.0670 ha        1 MOL      0.160595
    101 H45        -9.6780   -6.8660   -2.7600 ho        1 MOL      0.390936
    102 N10        -3.4050   -2.8680    2.0140 n         1 MOL     -0.695966
    103 C34        -2.4120   -2.4840    3.0840 c3        1 MOL      0.829526
    104 C35        -1.0300   -2.1010    2.5830 c         1 MOL      0.068357
    105 O15        -0.9040   -1.3050    1.6300 o         1 MOL     -0.455340
    106 C36        -2.9780   -1.5000    4.0850 c3        1 MOL      0.107819
    107 C37        -2.0960   -1.2090    5.2690 c3        1 MOL     -0.232052
    108 C38        -4.4000   -1.9110    4.5270 c3        1 MOL     -0.167101
    109 C39        -1.9410   -2.3420    6.2930 c3        1 MOL     -0.057694
    110 H46        -3.9530   -3.6890    2.2420 hn        1 MOL      0.294782
    111 H47        -2.2220   -3.4750    3.5200 h1        1 MOL     -0.137602
    112 H48        -3.0960   -0.5830    3.5060 hc        1 MOL      0.047061
    113 H49        -2.3980   -0.3020    5.7680 hc        1 MOL      0.090500
    114 H50        -1.1140   -0.9310    4.8870 hc        1 MOL      0.090500
    115 H51        -4.3800   -2.9750    4.7610 hc        1 MOL      0.032768
    116 H52        -4.6900   -1.2210    5.3300 hc        1 MOL      0.032768
    117 H53        -5.0860   -1.9040    3.6890 hc        1 MOL      0.032768
    118 H54        -1.8440   -3.3490    5.8750 hc        1 MOL      0.015074
    119 H55        -1.2330   -2.1890    7.1030 hc        1 MOL      0.015074
    120 H56        -2.9000   -2.3980    6.8000 hc        1 MOL      0.015074
    121 N11         0.0290   -2.5280    3.3040 n         1 MOL     -0.339467
    122 C40         1.4750   -2.1590    3.0740 c3        1 MOL     -0.136254
    123 C41         2.2510   -2.3460    1.7700 c         1 MOL      0.507336
    124 O16         3.4630   -2.1960    1.8400 o         1 MOL     -0.502757
    125 C42         2.3120   -2.8350    4.1620 c3        1 MOL     -0.113333
    126 O17         1.5360   -2.8180    5.3770 oh        1 MOL     -0.611409
    127 H57        -0.1370   -3.1010    4.1140 hn        1 MOL      0.261993
    128 H58         1.4840   -1.0710    3.1940 h1        1 MOL      0.315685
    129 H59         3.1710   -2.2410    4.4540 h1        1 MOL      0.170789
    130 H60         2.4580   -3.8990    4.0180 h1        1 MOL      0.170789
    131 H61         1.1420   -3.6890    5.4720 ho        1 MOL      0.397363
    132 N12         1.6420   -2.6920    0.5970 n         1 MOL     -0.405324
    133 C43         2.3580   -2.6310   -0.7280 c3        1 MOL     -0.072001
    134 C44         2.0820   -1.2130   -1.3620 c         1 MOL      0.829734
    135 O18         0.9870   -0.6830   -1.1620 o         1 MOL     -0.582146
    136 C45         1.8450   -3.7570   -1.6270 c3        1 MOL     -0.270815
    137 H62         0.6360   -2.6950    0.6030 hn        1 MOL      0.278706
    138 H63         3.4040   -2.8630   -0.5130 h1        1 MOL      0.165062
    139 H64         2.0570   -4.7100   -1.1520 hc        1 MOL      0.076391
    140 H65         0.7610   -3.7700   -1.7710 hc        1 MOL      0.076391
    141 H66         2.2960   -3.7350   -2.6230 hc        1 MOL      0.076391
    142 N13         3.0200   -0.6140   -2.1680 n         1 MOL     -0.836987
    143 C46         4.4660   -0.9570   -1.9440 c3        1 MOL      0.101601
    144 C47         4.9470   -2.2660   -2.5680 c         1 MOL      0.855323
    145 O19         4.6570   -2.5530   -3.7410 o         1 MOL     -0.605171
    146 C48         5.2540    0.2140   -2.5010 c3        1 MOL     -0.225748
    147 H67         2.7980    0.1300   -2.8150 hn        1 MOL      0.446514
    148 H68         4.6390   -1.0520   -0.8650 h1        1 MOL      0.063204
    149 H69         5.4280   -0.0210   -3.5450 hc        1 MOL      0.085656
    150 H70         4.7190    1.1620   -2.4550 hc        1 MOL      0.085656
    151 H71         6.2480    0.3440   -2.0830 hc        1 MOL      0.085656
    152 N14         5.8690   -3.0720   -2.0930 n         1 MOL     -0.698028
    153 C49         6.5450   -3.0910   -0.8350 c3        1 MOL     -0.304970
    154 C50         6.4610   -4.4650   -0.0890 c         1 MOL      0.585974
    155 O20         6.4710   -4.5050    1.1870 o         1 MOL     -0.549539
    156 C51         8.0320   -2.5540   -1.0250 c3        1 MOL      0.250975
    157 C52         8.9930   -3.3180   -1.9190 c3        1 MOL     -0.227500
    158 C53         8.6540   -3.0620   -3.4590 c         1 MOL      0.726829
    159 O21         8.8010   -1.8820   -3.8640 o         1 MOL     -0.697152
    160 O22         8.2130   -4.0130   -4.1180 o         1 MOL     -0.697152
    161 H72         6.3190   -3.7400   -2.6920 hn        1 MOL      0.372323
    162 H73         6.0450   -2.4960   -0.0660 h1        1 MOL      0.117126
    163 H74         8.4940   -2.5090   -0.0410 hc        1 MOL     -0.030823
    164 H75         7.9630   -1.5270   -1.3980 hc        1 MOL     -0.030823
    165 H76         8.8370   -4.3720   -1.7060 hc        1 MOL      0.012296
    166 H77        10.0300   -3.0560   -1.7260 hc        1 MOL      0.012296
    167 N15         6.2910   -5.5750   -0.8490 n         1 MOL     -0.268055
    168 C54         6.1870   -6.9190   -0.3350 c3        1 MOL     -0.111760
    169 H78         6.1180   -6.8870    0.7520 h1        1 MOL      0.068778
    170 H79         5.2950   -7.3970   -0.7410 h1        1 MOL      0.068778
    171 H80         7.0690   -7.4890   -0.6260 h1        1 MOL      0.068778
    172 H81         6.1690   -5.4690   -1.8470 hn        1 MOL      0.253285
    173 Ca1        -1.5400    0.3270   -0.8130 Ca        1 MOL      1.755305
    174 O23        -2.7890   -0.7440   -3.0710 oh        1 MOL     -0.828417
    175 H82        -3.5850   -0.7800   -3.5980 ho        1 MOL      0.417017
    176 H83        -2.5170   -1.6630   -2.9790 ho        1 MOL      0.417017
    177 O24        -1.4310   -2.4430   -1.2620 oh        1 MOL     -0.828417
    178 H84        -1.4730   -3.1510   -0.6140 ho        1 MOL      0.417017
    179 H85        -1.2540   -2.8800   -2.0970 ho        1 MOL      0.417017
@<TRIPOS>BOND
     1    1    2 1   
     2    1    4 1   
     3    1    5 1   
     4    1    6 1   
     5    2    3 2   
     6    2    7 1   
     7    7    8 1   
     8    7   15 1   
     9    8    9 1   
    10    8   11 1   
    11    8   16 1   
    12    9   10 2   
    13    9   19 1   
    14   11   12 1   
    15   11   17 1   
    16   11   18 1   
    17   12   13 1   
    18   12   14 1   
    19   19   20 1   
    20   19   28 1   
    21   20   21 1   
    22   20   23 1   
    23   20   29 1   
    24   21   22 2   
    25   21   41 1   
    26   23   24 1   
    27   23   30 1   
    28   23   31 1   
    29   24   25 1   
    30   24   32 1   
    31   24   33 1   
    32   25   26 1   
    33   25   34 1   
    34   25   35 1   
    35   26   27 1   
    36   26   36 1   
    37   26   37 1   
    38   27   38 1   
    39   27   39 1   
    40   27   40 1   
    41   41   42 1   
    42   41   49 1   
    43   42   43 1   
    44   42   45 1   
    45   42   50 1   
    46   43   44 2   
    47   43   53 1   
    48   45   46 1   
    49   45   51 1   
    50   45   52 1   
    51   46   47 1   
    52   46   48 1   
    53   53   54 1   
    54   53   57 1   
    55   54   55 1   
    56   54   58 1   
    57   54   59 1   
    58   55   56 2   
    59   55   60 1   
    60   60   61 1   
    61   60   68 1   
    62   61   62 1   
    63   61   64 1   
    64   61   69 1   
    65   62   63 2   
    66   62   74 1   
    67   64   65 1   
    68   64   70 1   
    69   64   71 1   
    70   65   66 1   
    71   65   67 2   
    72   66   72 1   
    73   66   73 1   
    74   74   75 1   
    75   74   78 1   
    76   75   76 1   
    77   75   79 1   
    78   75   80 1   
    79   76   77 2   
    80   76   81 1   
    81   81   82 1   
    82   81   93 1   
    83   82   83 1   
    84   82   85 1   
    85   82   94 1   
    86   83   84 2   
    87   83  102 1   
    88   85   86 1   
    89   85   95 1   
    90   85   96 1   
    91   86   87 ar  
    92   86   88 ar  
    93   87   89 ar  
    94   87   97 1   
    95   88   90 ar  
    96   88   98 1   
    97   89   91 ar  
    98   89   99 1   
    99   90   91 ar  
   100   90  100 1   
   101   91   92 1   
   102   92  101 1   
   103  102  103 1   
   104  102  110 1   
   105  103  104 1   
   106  103  106 1   
   107  103  111 1   
   108  104  105 2   
   109  104  121 1   
   110  106  107 1   
   111  106  108 1   
   112  106  112 1   
   113  107  109 1   
   114  107  113 1   
   115  107  114 1   
   116  108  115 1   
   117  108  116 1   
   118  108  117 1   
   119  109  118 1   
   120  109  119 1   
   121  109  120 1   
   122  121  122 1   
   123  121  127 1   
   124  122  123 1   
   125  122  125 1   
   126  122  128 1   
   127  123  124 2   
   128  123  132 1   
   129  125  126 1   
   130  125  129 1   
   131  125  130 1   
   132  126  131 1   
   133  132  133 1   
   134  132  137 1   
   135  133  134 1   
   136  133  136 1   
   137  133  138 1   
   138  134  135 2   
   139  134  142 1   
   140  136  139 1   
   141  136  140 1   
   142  136  141 1   
   143  142  143 1   
   144  142  147 1   
   145  143  144 1   
   146  143  146 1   
   147  143  148 1   
   148  144  145 2   
   149  144  152 1   
   150  146  149 1   
   151  146  150 1   
   152  146  151 1   
   153  152  153 1   
   154  152  161 1   
   155  153  154 1   
   156  153  156 1   
   157  153  162 1   
   158  154  155 2   
   159  154  167 1   
   160  156  157 1   
   161  156  163 1   
   162  156  164 1   
   163  157  158 1   
   164  157  165 1   
   165  157  166 1   
   166  158  159 1   
   167  158  160 1   
   168  167  168 1   
   169  167  172 1   
   170  168  169 1   
   171  168  170 1   
   172  168  171 1   
   173  174  175 1   
   174  174  176 1   
   175  177  178 1   
   176  177  179 1   
@<TRIPOS>SUBSTRUCTURE
     1 MOL         1 TEMP              0 ****  ****    0 ROOT
