@<TRIPOS>MOLECULE
MOL
  184   179     1     0     0
SMALL
resp


@<TRIPOS>ATOM
      1 C1         -2.5690   -2.7530   -4.0290 c3        1 MOL     -0.381845
      2 C2         -4.0140   -2.7720   -3.6670 c         1 MOL      0.747428
      3 O1         -4.6780   -1.7320   -3.7180 o         1 MOL     -0.595744
      4 H1         -1.9820   -2.4580   -3.1590 hc        1 MOL      0.083093
      5 H2         -2.2620   -3.7470   -4.3530 hc        1 MOL      0.083093
      6 H3         -2.4050   -2.0410   -4.8370 hc        1 MOL      0.083093
      7 N1         -4.5950   -3.9590   -3.4460 n         1 MOL     -0.493363
      8 C3         -5.8510   -4.1670   -2.7670 c3        1 MOL     -0.025944
      9 C4         -5.8040   -3.9280   -1.2480 c         1 MOL      0.479576
     10 O2         -4.9540   -4.5220   -0.5670 o         1 MOL     -0.502156
     11 C5         -6.3820   -5.5270   -3.1740 c3        1 MOL      0.000556
     12 C6         -7.8260   -5.6920   -2.8790 c         1 MOL      0.619559
     13 O3         -8.1470   -5.8620   -1.6370 o         1 MOL     -0.709874
     14 O4         -8.6800   -5.7620   -3.8120 o         1 MOL     -0.709874
     15 H4         -3.9230   -4.7000   -3.4850 hn        1 MOL      0.253735
     16 H5         -6.4790   -3.3960   -3.2090 h1        1 MOL      0.074624
     17 H6         -5.8000   -6.3640   -2.7990 hc        1 MOL     -0.008884
     18 H7         -6.2050   -5.6410   -4.2440 hc        1 MOL     -0.008884
     19 N2         -6.7600   -3.0660   -0.7270 n         1 MOL     -0.355075
     20 C7         -6.7070   -2.4870    0.6030 c3        1 MOL     -0.112621
     21 C8         -5.3980   -1.8410    0.9710 c         1 MOL      0.598298
     22 O5         -4.7760   -1.1220    0.1630 o         1 MOL     -0.525000
     23 C9         -7.9220   -1.5980    0.8250 c3        1 MOL     -0.369143
     24 H8         -7.6200   -2.9780   -1.2460 hn        1 MOL      0.300015
     25 H9         -6.8380   -3.3770    1.2210 h1        1 MOL      0.140196
     26 H10        -8.8100   -2.1530    0.5360 hc        1 MOL      0.115179
     27 H11        -8.0360   -1.1550    1.8170 hc        1 MOL      0.115179
     28 H12        -7.9080   -0.6720    0.2570 hc        1 MOL      0.115179
     29 N3         -4.8960   -2.0870    2.1680 n         1 MOL     -0.241720
     30 C10        -3.8860   -1.2570    2.8890 c3        1 MOL      0.063792
     31 C11        -4.5800    0.0240    3.5710 c         1 MOL      0.349276
     32 O6         -3.9130    0.7980    4.2420 o         1 MOL     -0.473518
     33 C12        -3.0050   -2.0340    3.9340 c3        1 MOL     -0.061161
     34 C13        -2.2860   -3.1870    3.2420 c         1 MOL      0.634260
     35 O7         -1.3750   -3.0350    2.4230 o         1 MOL     -0.693871
     36 O8         -2.6720   -4.3560    3.5220 o         1 MOL     -0.693871
     37 H13        -5.3950   -2.8040    2.6910 hn        1 MOL      0.164618
     38 H14        -3.1490   -0.8810    2.1760 h1        1 MOL      0.112559
     39 H15        -3.6340   -2.4980    4.6800 hc        1 MOL     -0.003003
     40 H16        -2.3660   -1.2510    4.3370 hc        1 MOL     -0.003003
     41 N4         -5.8680    0.1910    3.3200 n         1 MOL     -0.211005
     42 C14        -6.7020    1.2550    3.9070 c3        1 MOL     -0.188325
     43 C15        -6.3470    2.7520    3.6280 c         1 MOL      0.545608
     44 O9         -6.7190    3.6820    4.3230 o         1 MOL     -0.533122
     45 H17        -6.2450   -0.3800    2.5780 hn        1 MOL      0.177687
     46 H18        -6.5870    1.2270    4.9840 h1        1 MOL      0.096220
     47 H19        -7.7320    1.0380    3.6220 h1        1 MOL      0.096220
     48 N5         -5.5110    2.9580    2.6330 n         1 MOL     -0.374180
     49 C16        -4.8560    4.1920    2.2180 c3        1 MOL      0.145176
     50 C17        -4.5540    4.1390    0.6810 c         1 MOL      0.410189
     51 O10        -4.2220    3.1430    0.0990 o         1 MOL     -0.452085
     52 C18        -3.4820    4.4680    2.9580 c3        1 MOL     -0.143923
     53 C19        -3.5550    4.5760    4.5000 c         1 MOL      0.563272
     54 N6         -3.3940    3.4610    5.1700 n         1 MOL     -0.743158
     55 O11        -3.8280    5.6000    5.1430 o         1 MOL     -0.559712
     56 H20        -5.2460    2.1380    2.1140 hn        1 MOL      0.223809
     57 H21        -5.6000    4.9660    2.3890 h1        1 MOL      0.034768
     58 H22        -3.1510    5.4300    2.5660 hc        1 MOL      0.062369
     59 H23        -2.7930    3.6460    2.7370 hc        1 MOL      0.062369
     60 H24        -3.1600    2.5990    4.6870 hn        1 MOL      0.358732
     61 H25        -3.5440    3.3960    6.1660 hn        1 MOL      0.358732
     62 N7         -4.5270    5.3000    0.0940 n         1 MOL     -0.418292
     63 C20        -3.9470    5.5680   -1.2020 c3        1 MOL     -0.019747
     64 C21        -2.7270    6.3110   -0.9210 c         1 MOL      0.685586
     65 O12        -2.4300    6.6390    0.2280 o         1 MOL     -0.478268
     66 H26        -4.9210    6.1530    0.4710 hn        1 MOL      0.272870
     67 H27        -4.6030    6.2280   -1.7760 h1        1 MOL      0.080800
     68 H28        -3.8550    4.6650   -1.8100 h1        1 MOL      0.080800
     69 N8         -2.0810    6.7010   -2.0420 n         1 MOL     -0.694338
     70 C22        -0.8090    7.4130   -2.0400 c3        1 MOL     -0.103231
     71 C23         0.3980    6.5480   -2.0060 c         1 MOL      0.545563
     72 O13         1.4160    6.9830   -1.4820 o         1 MOL     -0.553191
     73 C24        -0.7350    8.4070   -3.1980 c3        1 MOL      0.447784
     74 C25        -0.8440    7.8380   -4.6140 c3        1 MOL     -0.267939
     75 O14        -1.6920    9.4830   -3.0570 oh        1 MOL     -0.633735
     76 H29        -2.3570    6.4040   -2.9690 hn        1 MOL      0.296012
     77 H30        -0.9080    7.9970   -1.1230 h1        1 MOL      0.111846
     78 H31         0.3010    8.7220   -3.0790 h1        1 MOL      0.009456
     79 H32        -2.5470    9.0590   -2.9800 ho        1 MOL      0.390120
     80 H33        -1.8160    7.3900   -4.8550 hc        1 MOL      0.057318
     81 H34        -0.8490    8.7370   -5.2320 hc        1 MOL      0.057318
     82 H35        -0.0480    7.1660   -4.9300 hc        1 MOL      0.057318
     83 N9          0.2910    5.2830   -2.5020 n         1 MOL     -0.283913
     84 C26         1.3900    4.3530   -2.4160 c3        1 MOL      0.076497
     85 C27         1.0040    3.1190   -1.5830 c         1 MOL      0.459653
     86 O15        -0.1490    2.9250   -1.3550 o         1 MOL     -0.485661
     87 C28         1.9620    4.0600   -3.8110 c3        1 MOL      0.230545
     88 C29         0.9580    3.6450   -4.9530 c3        1 MOL     -0.085084
     89 C30         2.8100    5.2520   -4.3250 c3        1 MOL     -0.431772
     90 C31         0.4050    2.2750   -4.8220 c3        1 MOL     -0.028760
     91 H36        -0.6140    4.9020   -2.7630 hn        1 MOL      0.238545
     92 H37         2.2150    4.7300   -1.8110 h1        1 MOL      0.054755
     93 H38         2.6500    3.2440   -3.5840 hc        1 MOL     -0.029607
     94 H39         1.6130    3.6570   -5.8260 hc        1 MOL      0.010696
     95 H40         0.1640    4.3840   -4.9940 hc        1 MOL      0.010696
     96 H41         2.1800    6.0900   -4.6400 hc        1 MOL      0.098552
     97 H42         3.3770    5.6070   -3.4690 hc        1 MOL      0.098552
     98 H43         3.3820    4.9660   -5.2070 hc        1 MOL      0.098552
     99 H44         1.2430    1.5760   -4.7330 hc        1 MOL      0.020559
    100 H45        -0.2120    2.1960   -3.9230 hc        1 MOL      0.020559
    101 H46        -0.1670    2.0550   -5.7240 hc        1 MOL      0.020559
    102 N10         1.9780    2.3390   -1.1530 n         1 MOL     -0.577989
    103 C32         1.7390    1.0250   -0.4930 c3        1 MOL      0.484264
    104 C33         2.8640    0.6000    0.3990 c         1 MOL      0.305307
    105 O16         3.0940   -0.6130    0.6040 o         1 MOL     -0.461513
    106 C34         1.3900   -0.0360   -1.5190 c3        1 MOL     -0.190152
    107 C35         0.8430   -1.3530   -0.8990 c         1 MOL      0.769253
    108 O17         1.2190   -2.4500   -1.3510 o         1 MOL     -0.768505
    109 O18         0.1160   -1.2910    0.0980 o         1 MOL     -0.768505
    110 H47         2.9170    2.5780   -1.4520 hn        1 MOL      0.265878
    111 H48         0.8790    1.1780    0.1440 h1        1 MOL      0.032730
    112 H49         2.2500   -0.1890   -2.1560 hc        1 MOL      0.035484
    113 H50         0.5520    0.2370   -2.1750 hc        1 MOL      0.035484
    114 N11         3.6770    1.5370    0.8510 n         1 MOL     -0.382937
    115 C36         4.8950    1.2690    1.5550 c3        1 MOL      0.217917
    116 C37         5.9470    0.5400    0.6840 c         1 MOL      0.365778
    117 O19         6.2280    0.9130   -0.4740 o         1 MOL     -0.545849
    118 C38         5.4390    2.6160    2.1810 c3        1 MOL     -0.202499
    119 C39         6.8670    2.5020    2.7220 ca        1 MOL      0.023036
    120 C40         7.0900    2.2840    4.1380 ca        1 MOL     -0.117994
    121 C41         7.9700    2.7420    1.8330 ca        1 MOL     -0.117994
    122 C42         8.4630    2.2610    4.5730 ca        1 MOL     -0.158639
    123 C43         9.2960    2.6450    2.2870 ca        1 MOL     -0.158639
    124 C44         9.4940    2.2670    3.6130 ca        1 MOL     -0.049572
    125 H51         3.3410    2.4820    0.7340 hn        1 MOL      0.226133
    126 H52         4.6520    0.6150    2.3900 h1        1 MOL      0.022026
    127 H53         4.8780    2.8820    3.0690 hc        1 MOL      0.090310
    128 H54         5.4640    3.4600    1.4850 hc        1 MOL      0.090310
    129 H55         6.3130    2.2810    4.8880 ha        1 MOL      0.126386
    130 H56         7.8480    2.8380    0.7680 ha        1 MOL      0.126386
    131 H57         8.7330    2.0590    5.6020 ha        1 MOL      0.124519
    132 H58        10.0790    2.7820    1.5530 ha        1 MOL      0.124519
    133 H59        10.5270    2.2370    3.9280 ha        1 MOL      0.077195
    134 N12         6.5860   -0.5360    1.1890 n         1 MOL      0.080498
    135 C45         7.7780   -1.1150    0.5600 c3        1 MOL     -0.122896
    136 C46         7.4510   -2.0360   -0.6100 c         1 MOL      0.378343
    137 O20         8.2210   -2.0880   -1.5920 o         1 MOL     -0.475306
    138 C47         8.5290   -1.7860    1.7630 c3        1 MOL      0.026682
    139 C48         7.4330   -2.1890    2.7940 c3        1 MOL      0.013695
    140 C49         6.4670   -1.0700    2.5650 c3        1 MOL      0.022711
    141 H60         8.4230   -0.2880    0.2370 h1        1 MOL      0.089009
    142 H61         9.2060   -2.6030    1.4990 hc        1 MOL      0.011335
    143 H62         9.1320   -1.0630    2.3080 hc        1 MOL      0.011335
    144 H63         7.1080   -3.1900    2.5030 hc        1 MOL      0.010190
    145 H64         7.7700   -2.1800    3.8280 hc        1 MOL      0.010190
    146 H65         5.4440   -1.3950    2.7730 h1        1 MOL     -0.012747
    147 H66         6.7180   -0.2520    3.2380 h1        1 MOL     -0.012747
    148 N13         6.2580   -2.7940   -0.4960 n         1 MOL     -0.167147
    149 C50         5.9330   -3.7860   -1.5360 c3        1 MOL     -0.351855
    150 C51         5.8200   -3.2760   -2.9990 c         1 MOL      0.511938
    151 O21         6.2560   -3.9150   -3.9960 o         1 MOL     -0.543265
    152 C52         4.6200   -4.5070   -1.1220 c3        1 MOL      0.184318
    153 C53         4.5880   -5.0920    0.3240 c3        1 MOL     -0.029942
    154 C54         3.3130   -5.9330    0.4790 c         1 MOL      0.745478
    155 O22         3.4850   -6.9510    1.1620 o         1 MOL     -0.752346
    156 O23         2.1980   -5.6040    0.1000 o         1 MOL     -0.752346
    157 H67         5.6290   -2.4580    0.2240 hn        1 MOL      0.196953
    158 H68         6.7880   -4.4610   -1.5280 h1        1 MOL      0.161367
    159 H69         4.2910   -5.3030   -1.7980 hc        1 MOL     -0.030382
    160 H70         3.8240   -3.7640   -1.1460 hc        1 MOL     -0.030382
    161 H71         4.5880   -4.2440    1.0090 hc        1 MOL     -0.038877
    162 H72         5.4620   -5.7380    0.4230 hc        1 MOL     -0.038877
    163 N14         5.3070   -2.0350   -3.1400 n         1 MOL     -0.178229
    164 C55         5.1180   -1.3860   -4.4830 c3        1 MOL     -0.360893
    165 H73         4.3930   -1.9570   -5.0640 h1        1 MOL      0.132798
    166 H74         4.7520   -0.3680   -4.3470 h1        1 MOL      0.132798
    167 H75         6.0700   -1.3630   -5.0140 h1        1 MOL      0.132798
    168 H76         4.9760   -1.5880   -2.3000 hn        1 MOL      0.227131
    169 Ca1         0.0980   -4.0650    0.4780 Ca        1 MOL      1.801919
    170 O24         0.3410   -5.0230   -2.2030 oh        1 MOL     -0.846813
    171 H77         0.9180   -4.5310   -2.7770 ho        1 MOL      0.409632
    172 H78         0.2580   -5.8840   -2.6140 ho        1 MOL      0.409632
    173 O25         0.6930   -4.8130    3.1390 oh        1 MOL     -0.846813
    174 H79         1.3410   -5.4570    3.4150 ho        1 MOL      0.409632
    175 H80        -0.0570   -4.9590    3.7230 ho        1 MOL      0.409632
    176 O26        -2.3570   -3.8270   -0.6270 oh        1 MOL     -0.846813
    177 H81        -2.1330   -4.4110   -1.3510 ho        1 MOL      0.409632
    178 H82        -3.3050   -3.7620   -0.6420 ho        1 MOL      0.409632
    179 O27        -0.9480   -6.6120    0.6940 oh        1 MOL     -0.846813
    180 H83        -0.7040   -7.2570    0.0220 ho        1 MOL      0.409632
    181 H84        -1.1480   -7.1300    1.4650 ho        1 MOL      0.409632
    182 O28         2.2030   -2.7920    1.7350 oh        1 MOL     -0.846813
    183 H85         2.4580   -2.6860    2.6520 ho        1 MOL      0.409632
    184 H86         2.4210   -1.9460    1.3340 ho        1 MOL      0.409632
@<TRIPOS>BOND
     1    1    2 1   
     2    1    4 1   
     3    1    5 1   
     4    1    6 1   
     5    2    3 2   
     6    2    7 1   
     7    7    8 1   
     8    7   15 1   
     9    8    9 1   
    10    8   11 1   
    11    8   16 1   
    12    9   10 2   
    13    9   19 1   
    14   11   12 1   
    15   11   17 1   
    16   11   18 1   
    17   12   13 1   
    18   12   14 1   
    19   19   20 1   
    20   19   24 1   
    21   20   21 1   
    22   20   23 1   
    23   20   25 1   
    24   21   22 2   
    25   21   29 1   
    26   23   26 1   
    27   23   27 1   
    28   23   28 1   
    29   29   30 1   
    30   29   37 1   
    31   30   31 1   
    32   30   33 1   
    33   30   38 1   
    34   31   32 2   
    35   31   41 1   
    36   33   34 1   
    37   33   39 1   
    38   33   40 1   
    39   34   35 1   
    40   34   36 1   
    41   41   42 1   
    42   41   45 1   
    43   42   43 1   
    44   42   46 1   
    45   42   47 1   
    46   43   44 2   
    47   43   48 1   
    48   48   49 1   
    49   48   56 1   
    50   49   50 1   
    51   49   52 1   
    52   49   57 1   
    53   50   51 2   
    54   50   62 1   
    55   52   53 1   
    56   52   58 1   
    57   52   59 1   
    58   53   54 1   
    59   53   55 2   
    60   54   60 1   
    61   54   61 1   
    62   62   63 1   
    63   62   66 1   
    64   63   64 1   
    65   63   67 1   
    66   63   68 1   
    67   64   65 2   
    68   64   69 1   
    69   69   70 1   
    70   69   76 1   
    71   70   71 1   
    72   70   73 1   
    73   70   77 1   
    74   71   72 2   
    75   71   83 1   
    76   73   74 1   
    77   73   75 1   
    78   73   78 1   
    79   74   80 1   
    80   74   81 1   
    81   74   82 1   
    82   75   79 1   
    83   83   84 1   
    84   83   91 1   
    85   84   85 1   
    86   84   87 1   
    87   84   92 1   
    88   85   86 2   
    89   85  102 1   
    90   87   88 1   
    91   87   89 1   
    92   87   93 1   
    93   88   90 1   
    94   88   94 1   
    95   88   95 1   
    96   89   96 1   
    97   89   97 1   
    98   89   98 1   
    99   90   99 1   
   100   90  100 1   
   101   90  101 1   
   102  102  103 1   
   103  102  110 1   
   104  103  104 1   
   105  103  106 1   
   106  103  111 1   
   107  104  105 2   
   108  104  114 1   
   109  106  107 1   
   110  106  112 1   
   111  106  113 1   
   112  107  108 1   
   113  107  109 1   
   114  114  115 1   
   115  114  125 1   
   116  115  116 1   
   117  115  118 1   
   118  115  126 1   
   119  116  117 2   
   120  116  134 1   
   121  118  119 1   
   122  118  127 1   
   123  118  128 1   
   124  119  120 ar  
   125  119  121 ar  
   126  120  122 ar  
   127  120  129 1   
   128  121  123 ar  
   129  121  130 1   
   130  122  124 ar  
   131  122  131 1   
   132  123  124 ar  
   133  123  132 1   
   134  124  133 1   
   135  134  135 1   
   136  134  140 1   
   137  135  136 1   
   138  135  138 1   
   139  135  141 1   
   140  136  137 2   
   141  136  148 1   
   142  138  139 1   
   143  138  142 1   
   144  138  143 1   
   145  139  140 1   
   146  139  144 1   
   147  139  145 1   
   148  140  146 1   
   149  140  147 1   
   150  148  149 1   
   151  148  157 1   
   152  149  150 1   
   153  149  152 1   
   154  149  158 1   
   155  150  151 2   
   156  150  163 1   
   157  152  153 1   
   158  152  159 1   
   159  152  160 1   
   160  153  154 1   
   161  153  161 1   
   162  153  162 1   
   163  154  155 1   
   164  154  156 1   
   165  163  164 1   
   166  163  168 1   
   167  164  165 1   
   168  164  166 1   
   169  164  167 1   
   170  170  171 1   
   171  170  172 1   
   172  173  174 1   
   173  173  175 1   
   174  176  177 1   
   175  176  178 1   
   176  179  180 1   
   177  179  181 1   
   178  182  183 1   
   179  182  184 1   
@<TRIPOS>SUBSTRUCTURE
     1 MOL         1 TEMP              0 ****  ****    0 ROOT
