@<TRIPOS>MOLECULE
MOL
  195   189     1     0     0
SMALL
resp


@<TRIPOS>ATOM
      1 C1          3.7100    4.0080    2.9450 c3        1 MOL      0.035497
      2 C2          2.2860    3.8610    2.2940 c         1 MOL      0.562185
      3 O1          1.8060    2.7330    2.2390 o         1 MOL     -0.519030
      4 H1          4.3460    4.6060    2.2940 hc        1 MOL     -0.025679
      5 H2          3.6180    4.4980    3.9140 hc        1 MOL     -0.025679
      6 H3          4.1530    3.0200    3.0780 hc        1 MOL     -0.025679
      7 N1          1.5710    4.9360    1.9420 n         1 MOL     -0.640426
      8 C3          0.4290    5.1380    1.0490 c3        1 MOL      0.005232
      9 C4         -0.8730    4.5640    1.4290 c         1 MOL      0.848952
     10 O2         -1.8630    4.6870    0.7410 o         1 MOL     -0.631667
     11 C5          0.8810    4.7970   -0.3510 c3        1 MOL     -0.760556
     12 C6          2.1640    5.5310   -0.8460 c         1 MOL      0.946483
     13 O3          2.9290    4.9880   -1.6760 o         1 MOL     -0.685184
     14 O4          2.4390    6.6530   -0.4460 o         1 MOL     -0.685184
     15 H4          2.0200    5.7890    2.2550 hn        1 MOL      0.310190
     16 H5          0.2460    6.2170    0.9540 h1        1 MOL      0.108745
     17 H6          0.0600    4.9660   -1.0480 hc        1 MOL      0.233084
     18 H7          1.0830    3.7330   -0.2630 hc        1 MOL      0.233084
     19 N2         -0.9730    3.8100    2.5390 n         1 MOL     -0.689630
     20 C7         -2.1270    3.0610    2.9510 c3        1 MOL     -0.210861
     21 C8         -3.2060    3.9940    3.5680 c         1 MOL      0.565648
     22 O5         -2.9390    5.1490    3.9310 o         1 MOL     -0.565973
     23 C9         -1.6620    1.9390    4.0220 c3        1 MOL     -0.046122
     24 C10        -0.8320    2.5620    5.2280 c3        1 MOL      0.292993
     25 C11        -0.8710    0.8140    3.3160 c3        1 MOL     -0.132831
     26 C12        -0.1810    1.5380    6.2360 c3        1 MOL     -0.282621
     27 H8         -0.1590    3.3360    2.9050 hn        1 MOL      0.473159
     28 H9         -2.4520    2.6060    2.0210 h1        1 MOL      0.211352
     29 H10        -2.5220    1.4410    4.4610 hc        1 MOL      0.052531
     30 H11        -1.4730    3.2570    5.7680 hc        1 MOL     -0.053971
     31 H12        -0.0300    3.1880    4.8520 hc        1 MOL     -0.053971
     32 H13        -1.4090    0.6720    2.3790 hc        1 MOL      0.044775
     33 H14         0.1570    1.1410    3.1420 hc        1 MOL      0.044775
     34 H15        -0.8220   -0.1190    3.8660 hc        1 MOL      0.044775
     35 H16        -1.0230    1.0380    6.7170 hc        1 MOL      0.060365
     36 H17         0.4810    0.8620    5.7020 hc        1 MOL      0.060365
     37 H18         0.3950    2.0710    6.9940 hc        1 MOL      0.060365
     38 N3         -4.4790    3.6680    3.5580 n         1 MOL     -0.344666
     39 C13        -5.1040    2.4720    2.8690 c3        1 MOL     -0.029630
     40 C14        -4.9910    2.4000    1.3670 c         1 MOL      0.243440
     41 O6         -5.2710    1.3410    0.8390 o         1 MOL     -0.385051
     42 C15        -6.6210    2.4910    3.2170 c3        1 MOL     -0.057227
     43 C16        -6.9880    2.7820    4.6180 c         1 MOL      0.670980
     44 O7         -7.2000    4.0240    4.9420 o         1 MOL     -0.673605
     45 O8         -7.1070    1.8060    5.3540 o         1 MOL     -0.673605
     46 H19        -5.1200    4.3050    4.0170 hn        1 MOL      0.223643
     47 H20        -4.7130    1.5310    3.2720 h1        1 MOL      0.083211
     48 H21        -7.0720    1.5300    2.9710 hc        1 MOL      0.023572
     49 H22        -7.0510    3.2580    2.5790 hc        1 MOL      0.023572
     50 N4         -4.6670    3.5300    0.6900 n         1 MOL     -0.087146
     51 C17        -4.7730    3.5950   -0.7340 c3        1 MOL     -0.434715
     52 C18        -6.1440    3.1620   -1.2330 c         1 MOL      0.605881
     53 O9         -7.1380    3.8500   -0.9180 o         1 MOL     -0.571616
     54 H23        -4.4660    4.3750    1.2150 hn        1 MOL      0.281035
     55 H24        -3.9730    2.9540   -1.0980 h1        1 MOL      0.152036
     56 H25        -4.4740    4.6060   -1.0030 h1        1 MOL      0.152036
     57 N5         -6.2350    2.0680   -1.9740 n         1 MOL     -0.459813
     58 C19        -7.5590    1.5700   -2.4630 c3        1 MOL      0.202968
     59 C20        -8.1070    0.3740   -1.5780 c         1 MOL      0.305174
     60 O10        -9.2610   -0.0740   -1.7660 o         1 MOL     -0.554403
     61 C21        -7.5140    1.2050   -3.9340 c3        1 MOL     -0.343210
     62 C22        -6.5620    0.0510   -4.3010 c         1 MOL      0.761128
     63 O11        -6.1800   -0.0120   -5.4760 o         1 MOL     -0.726178
     64 O12        -6.1780   -0.8020   -3.4910 o         1 MOL     -0.726178
     65 H26        -5.3400    1.7100   -2.2740 hn        1 MOL      0.295434
     66 H27        -8.3560    2.3080   -2.3470 h1        1 MOL      0.058127
     67 H28        -7.2710    2.1040   -4.5050 hc        1 MOL      0.072540
     68 H29        -8.5280    0.9690   -4.2390 hc        1 MOL      0.072540
     69 N6         -7.2750   -0.0550   -0.6710 n         1 MOL      0.085553
     70 C23        -7.6350   -1.0510    0.3150 c3        1 MOL     -0.306756
     71 C24        -7.2050   -2.4540    0.0150 c         1 MOL      0.690808
     72 O13        -7.7010   -3.3870    0.7020 o         1 MOL     -0.613860
     73 H30        -6.3870    0.4240   -0.5390 hn        1 MOL      0.044768
     74 H31        -8.7200   -1.0030    0.2850 h1        1 MOL      0.120261
     75 H32        -7.1990   -0.7120    1.2590 h1        1 MOL      0.120261
     76 N7         -6.3830   -2.6450   -0.9490 n         1 MOL     -0.417414
     77 C25        -5.7330   -3.9090   -1.2240 c3        1 MOL     -0.050485
     78 C26        -4.8990   -4.5170   -0.0690 c         1 MOL      0.448197
     79 O14        -4.5600   -5.6300   -0.1450 o         1 MOL     -0.498549
     80 C27        -6.7230   -4.8950   -1.8330 c3        1 MOL      0.008127
     81 C28        -7.1880   -4.4180   -3.2470 c3        1 MOL     -0.254147
     82 C29        -8.1080   -5.2390   -4.1030 c         1 MOL      0.706747
     83 N8         -8.5160   -4.7600   -5.2450 n         1 MOL     -0.821616
     84 O15        -8.4640   -6.3640   -3.7940 o         1 MOL     -0.601651
     85 H33        -6.3720   -1.9820   -1.7170 hn        1 MOL      0.257451
     86 H34        -4.9920   -3.7440   -1.9990 h1        1 MOL      0.098275
     87 H35        -7.5240   -5.1380   -1.1380 hc        1 MOL      0.042876
     88 H36        -6.2750   -5.8800   -1.9380 hc        1 MOL      0.042876
     89 H37        -6.3110   -4.1980   -3.8650 hc        1 MOL      0.097279
     90 H38        -7.5760   -3.4030   -3.1370 hc        1 MOL      0.097279
     91 H39        -8.2190   -3.8490   -5.5610 hn        1 MOL      0.359940
     92 H40        -9.1420   -5.2900   -5.8260 hn        1 MOL      0.359940
     93 N9         -4.5090   -3.7400    0.9410 n         1 MOL     -0.150044
     94 C30        -3.5660   -4.2060    2.0030 c3        1 MOL     -0.052194
     95 C31        -2.0510   -4.1630    1.6090 c         1 MOL      0.431716
     96 O16        -1.2970   -5.0420    2.0790 o         1 MOL     -0.505567
     97 C32        -3.6850   -3.3990    3.3140 c3        1 MOL      0.275162
     98 C33        -4.0120   -1.9690    3.1010 c3        1 MOL     -0.396765
     99 C34        -4.8720   -3.9660    4.1340 c3        1 MOL     -0.396765
    100 H41        -4.9400   -2.8240    0.8840 hn        1 MOL      0.136972
    101 H42        -3.7130   -5.2400    2.3220 h1        1 MOL      0.090314
    102 H43        -2.8140   -3.6360    3.9250 hc        1 MOL      0.011217
    103 H44        -3.2970   -1.4210    2.4850 hc        1 MOL      0.095419
    104 H45        -4.9560   -1.7910    2.5760 hc        1 MOL      0.095419
    105 H46        -3.8890   -1.4620    4.0550 hc        1 MOL      0.095419
    106 H47        -5.5990   -4.3620    3.4280 hc        1 MOL      0.095419
    107 H48        -4.5150   -4.8420    4.6650 hc        1 MOL      0.095419
    108 H49        -5.2110   -3.2630    4.8980 hc        1 MOL      0.095419
    109 N10        -1.6910   -3.2150    0.7240 n         1 MOL     -0.357759
    110 C35        -0.2570   -2.8040    0.3980 c3        1 MOL      0.027334
    111 C36         0.5600   -3.8600   -0.2490 c         1 MOL      0.544265
    112 O17        -0.0220   -4.8430   -0.7290 o         1 MOL     -0.489062
    113 C37        -0.3290   -1.5110   -0.4540 c3        1 MOL     -0.331790
    114 C38         0.9600   -0.6490   -0.3930 c         1 MOL      0.691682
    115 N11         0.9470    0.4570   -1.0840 n         1 MOL     -0.680664
    116 O18         1.8980   -0.8440    0.3820 o         1 MOL     -0.509523
    117 H50        -2.3940   -2.6830    0.2510 hn        1 MOL      0.222271
    118 H51         0.2820   -2.3870    1.2600 h1        1 MOL      0.060702
    119 H52        -1.2280   -0.9510   -0.2230 hc        1 MOL      0.103958
    120 H53        -0.4600   -1.8060   -1.4950 hc        1 MOL      0.103958
    121 H54         0.2570    0.5580   -1.8120 hn        1 MOL      0.317440
    122 H55         1.8490    0.9250   -1.1140 hn        1 MOL      0.317440
    123 N12         1.9090   -3.6850   -0.2020 n         1 MOL     -0.364634
    124 C39         3.0140   -4.4430   -0.7230 c3        1 MOL     -0.036751
    125 C40         4.3550   -3.9810   -0.0930 c         1 MOL      0.622129
    126 O19         4.5080   -2.8950    0.4180 o         1 MOL     -0.476325
    127 C41         3.2670   -4.2540   -2.2060 c3        1 MOL     -0.147034
    128 C42         3.0600   -2.8730   -2.8020 ca        1 MOL      0.014393
    129 C43         4.1280   -2.0170   -2.6750 ca        1 MOL     -0.103755
    130 C44         1.8800   -2.4700   -3.4400 ca        1 MOL     -0.103755
    131 C45         3.9950   -0.7110   -3.1650 ca        1 MOL     -0.250497
    132 C46         1.7650   -1.2070   -4.0180 ca        1 MOL     -0.250497
    133 C47         2.8230   -0.2940   -3.8680 ca        1 MOL      0.186744
    134 O20         2.6120    0.9190   -4.3130 oh        1 MOL     -0.467092
    135 H56         2.2300   -2.8380    0.2510 hn        1 MOL      0.190594
    136 H57         2.7410   -5.5010   -0.6150 h1        1 MOL      0.101490
    137 H58         2.4300   -4.7940   -2.6560 hc        1 MOL      0.060996
    138 H59         4.1850   -4.7340   -2.5360 hc        1 MOL      0.060996
    139 H60         5.1040   -2.2860   -2.2930 ha        1 MOL      0.125244
    140 H61         1.0550   -3.1470   -3.5130 ha        1 MOL      0.125244
    141 H62         4.7800    0.0260   -3.0720 ha        1 MOL      0.134208
    142 H63         0.8120   -0.9060   -4.4340 ha        1 MOL      0.134208
    143 H64         3.4010    1.4240   -4.0990 ho        1 MOL      0.452226
    144 N13         5.3470   -4.8540   -0.0680 n         1 MOL     -0.640863
    145 C48         6.7550   -4.5760    0.3570 c3        1 MOL      0.177654
    146 C49         7.6080   -3.9570   -0.7290 c         1 MOL      0.644441
    147 O21         7.8920   -4.6110   -1.7360 o         1 MOL     -0.615757
    148 C50         7.4430   -5.8800    0.7680 c3        1 MOL      0.298561
    149 C51         6.9360   -6.3100    2.1050 c3        1 MOL     -0.142555
    150 C52         7.6640   -7.6040    2.4550 c         1 MOL      0.647526
    151 O22         7.1190   -8.6910    2.2130 o         1 MOL     -0.657015
    152 O23         8.8530   -7.4570    2.8020 o         1 MOL     -0.657015
    153 H65         5.1800   -5.7680   -0.4750 hn        1 MOL      0.304847
    154 H66         6.8630   -3.9240    1.2220 h1        1 MOL     -0.004240
    155 H67         8.5210   -5.7240    0.8250 hc        1 MOL     -0.040210
    156 H68         7.3210   -6.6570    0.0200 hc        1 MOL     -0.040210
    157 H69         5.9110   -6.6560    2.2320 hc        1 MOL     -0.005233
    158 H70         7.1050   -5.5170    2.8410 hc        1 MOL     -0.005233
    159 N14         8.1180   -2.7220   -0.6410 n         1 MOL     -0.710779
    160 C53         7.8810   -1.6760    0.3630 c3        1 MOL      0.284728
    161 C54         8.7290   -1.8250    1.5840 c         1 MOL      0.382328
    162 O24         9.7900   -2.4530    1.6200 o         1 MOL     -0.516608
    163 C55         8.1330   -0.2730   -0.2200 c3        1 MOL      0.046693
    164 C56         7.1790    0.1010   -1.3230 c3        1 MOL     -0.206356
    165 C57         7.3750    1.5310   -1.7500 c         1 MOL      0.644807
    166 O25         8.5400    1.9720   -1.8500 o         1 MOL     -0.698445
    167 O26         6.3930    2.1690   -2.2090 o         1 MOL     -0.698445
    168 H71         8.7210   -2.4690   -1.4180 hn        1 MOL      0.362450
    169 H72         6.8550   -1.7090    0.7090 h1        1 MOL     -0.011798
    170 H73         9.1180   -0.2290   -0.6810 hc        1 MOL     -0.019353
    171 H74         8.1100    0.5240    0.5220 hc        1 MOL     -0.019353
    172 H75         6.1750   -0.1680   -0.9900 hc        1 MOL      0.088941
    173 H76         7.4930   -0.5320   -2.1480 hc        1 MOL      0.088941
    174 N15         8.3520   -1.2390    2.7350 n         1 MOL     -0.305242
    175 C58         9.0500   -1.2900    4.1160 c3        1 MOL     -0.172516
    176 H77         9.8900   -0.5950    4.1240 h1        1 MOL      0.100074
    177 H78         8.3390   -1.0080    4.8930 h1        1 MOL      0.100074
    178 H79         9.4120   -2.3000    4.3030 h1        1 MOL      0.100074
    179 H80         7.5220   -0.6960    2.5310 hn        1 MOL      0.236054
    180 Ca1         4.7390    6.8720   -1.8370 Ca        1 MOL      1.505390
    181 O27         5.0750    5.2110   -3.9630 oh        1 MOL     -0.812745
    182 H81         5.8150    5.1980   -4.5710 ho        1 MOL      0.383650
    183 H82         4.3800    4.7600   -4.4370 ho        1 MOL      0.383650
    184 O28         2.6410    7.2750   -3.6740 oh        1 MOL     -0.812745
    185 H83         2.3030    8.1550   -3.8540 ho        1 MOL      0.383650
    186 H84         2.1130    6.6950   -4.2340 ho        1 MOL      0.383650
    187 O29         6.2580    8.2770   -3.3880 oh        1 MOL     -0.812745
    188 H85         7.0810    8.5680   -2.9870 ho        1 MOL      0.383650
    189 H86         6.4760    8.1160   -4.3040 ho        1 MOL      0.383650
    190 O30         6.8160    4.7760   -1.7880 oh        1 MOL     -0.812745
    191 H87         7.6300    4.8440   -1.2810 ho        1 MOL      0.383650
    192 H88         6.6080    3.8450   -1.7840 ho        1 MOL      0.383650
    193 O31         3.7080    9.3440   -0.9870 oh        1 MOL     -0.812745
    194 H89         3.1780    9.6180   -0.2450 ho        1 MOL      0.383650
    195 H90         4.1010   10.1530   -1.3120 ho        1 MOL      0.383650
@<TRIPOS>BOND
     1    1    2 1   
     2    1    4 1   
     3    1    5 1   
     4    1    6 1   
     5    2    3 2   
     6    2    7 1   
     7    7    8 1   
     8    7   15 1   
     9    8    9 1   
    10    8   11 1   
    11    8   16 1   
    12    9   10 2   
    13    9   19 1   
    14   11   12 1   
    15   11   17 1   
    16   11   18 1   
    17   12   13 1   
    18   12   14 1   
    19   19   20 1   
    20   19   27 1   
    21   20   21 1   
    22   20   23 1   
    23   20   28 1   
    24   21   22 2   
    25   21   38 1   
    26   23   24 1   
    27   23   25 1   
    28   23   29 1   
    29   24   26 1   
    30   24   30 1   
    31   24   31 1   
    32   25   32 1   
    33   25   33 1   
    34   25   34 1   
    35   26   35 1   
    36   26   36 1   
    37   26   37 1   
    38   38   39 1   
    39   38   46 1   
    40   39   40 1   
    41   39   42 1   
    42   39   47 1   
    43   40   41 2   
    44   40   50 1   
    45   42   43 1   
    46   42   48 1   
    47   42   49 1   
    48   43   44 1   
    49   43   45 1   
    50   50   51 1   
    51   50   54 1   
    52   51   52 1   
    53   51   55 1   
    54   51   56 1   
    55   52   53 2   
    56   52   57 1   
    57   57   58 1   
    58   57   65 1   
    59   58   59 1   
    60   58   61 1   
    61   58   66 1   
    62   59   60 2   
    63   59   69 1   
    64   61   62 1   
    65   61   67 1   
    66   61   68 1   
    67   62   63 1   
    68   62   64 1   
    69   69   70 1   
    70   69   73 1   
    71   70   71 1   
    72   70   74 1   
    73   70   75 1   
    74   71   72 2   
    75   71   76 1   
    76   76   77 1   
    77   76   85 1   
    78   77   78 1   
    79   77   80 1   
    80   77   86 1   
    81   78   79 2   
    82   78   93 1   
    83   80   81 1   
    84   80   87 1   
    85   80   88 1   
    86   81   82 1   
    87   81   89 1   
    88   81   90 1   
    89   82   83 1   
    90   82   84 2   
    91   83   91 1   
    92   83   92 1   
    93   93   94 1   
    94   93  100 1   
    95   94   95 1   
    96   94   97 1   
    97   94  101 1   
    98   95   96 2   
    99   95  109 1   
   100   97   98 1   
   101   97   99 1   
   102   97  102 1   
   103   98  103 1   
   104   98  104 1   
   105   98  105 1   
   106   99  106 1   
   107   99  107 1   
   108   99  108 1   
   109  109  110 1   
   110  109  117 1   
   111  110  111 1   
   112  110  113 1   
   113  110  118 1   
   114  111  112 2   
   115  111  123 1   
   116  113  114 1   
   117  113  119 1   
   118  113  120 1   
   119  114  115 1   
   120  114  116 2   
   121  115  121 1   
   122  115  122 1   
   123  123  124 1   
   124  123  135 1   
   125  124  125 1   
   126  124  127 1   
   127  124  136 1   
   128  125  126 2   
   129  125  144 1   
   130  127  128 1   
   131  127  137 1   
   132  127  138 1   
   133  128  129 ar  
   134  128  130 ar  
   135  129  131 ar  
   136  129  139 1   
   137  130  132 ar  
   138  130  140 1   
   139  131  133 ar  
   140  131  141 1   
   141  132  133 ar  
   142  132  142 1   
   143  133  134 1   
   144  134  143 1   
   145  144  145 1   
   146  144  153 1   
   147  145  146 1   
   148  145  148 1   
   149  145  154 1   
   150  146  147 2   
   151  146  159 1   
   152  148  149 1   
   153  148  155 1   
   154  148  156 1   
   155  149  150 1   
   156  149  157 1   
   157  149  158 1   
   158  150  151 1   
   159  150  152 1   
   160  159  160 1   
   161  159  168 1   
   162  160  161 1   
   163  160  163 1   
   164  160  169 1   
   165  161  162 2   
   166  161  174 1   
   167  163  164 1   
   168  163  170 1   
   169  163  171 1   
   170  164  165 1   
   171  164  172 1   
   172  164  173 1   
   173  165  166 1   
   174  165  167 1   
   175  174  175 1   
   176  174  179 1   
   177  175  176 1   
   178  175  177 1   
   179  175  178 1   
   180  181  182 1   
   181  181  183 1   
   182  184  185 1   
   183  184  186 1   
   184  187  188 1   
   185  187  189 1   
   186  190  191 1   
   187  190  192 1   
   188  193  194 1   
   189  193  195 1   
@<TRIPOS>SUBSTRUCTURE
     1 MOL         1 TEMP              0 ****  ****    0 ROOT
