@<TRIPOS>MOLECULE
MOL
  178   175     1     0     0
SMALL
resp


@<TRIPOS>ATOM
      1 C1          0.6900    7.0370   -2.4980 c3        1 MOL     -0.386017
      2 C2          1.7200    6.3320   -1.6290 c         1 MOL      0.722610
      3 O1          1.8230    6.6820   -0.4710 o         1 MOL     -0.574845
      4 H1         -0.3020    6.6450   -2.2740 hc        1 MOL      0.090473
      5 H2          0.7110    8.1070   -2.2920 hc        1 MOL      0.090473
      6 H3          0.9200    6.8630   -3.5490 hc        1 MOL      0.090473
      7 N1          2.6690    5.6430   -2.2730 n         1 MOL     -0.577982
      8 C3          3.9960    5.2860   -1.6870 c3        1 MOL      0.154804
      9 C4          3.9090    4.3750   -0.4600 c         1 MOL      0.654291
     10 O2          3.4780    3.2250   -0.5730 o         1 MOL     -0.557880
     11 C5          4.8400    4.7150   -2.8110 c3        1 MOL     -0.408066
     12 C6          6.2780    4.4660   -2.3260 c         1 MOL      0.753517
     13 O3          6.9730    5.4490   -1.9160 o         1 MOL     -0.734060
     14 O4          6.7650    3.2810   -2.3400 o         1 MOL     -0.734060
     15 H4          2.6370    5.5010   -3.2790 hn        1 MOL      0.318075
     16 H5          4.5400    6.1870   -1.3960 h1        1 MOL      0.043062
     17 H6          4.8590    5.5240   -3.5440 hc        1 MOL      0.078599
     18 H7          4.3910    3.8450   -3.2860 hc        1 MOL      0.078599
     19 N2          4.1910    4.8160    0.7710 n         1 MOL     -0.682874
     20 C7          4.0070    4.0850    2.0570 c3        1 MOL      0.770626
     21 C8          2.5690    3.6160    2.3350 c         1 MOL      0.105162
     22 O5          1.5960    4.2060    1.8190 o         1 MOL     -0.449481
     23 C9          4.5190    5.0050    3.1880 c3        1 MOL     -0.425512
     24 H8          4.4330    5.7760    0.9280 hn        1 MOL      0.308552
     25 H9          4.6400    3.2020    2.0230 h1        1 MOL     -0.098283
     26 H10         5.4800    5.4260    2.8900 hc        1 MOL      0.094204
     27 H11         3.9210    5.9100    3.2190 hc        1 MOL      0.094204
     28 H12         4.6780    4.4830    4.1280 hc        1 MOL      0.094204
     29 N3          2.4010    2.7310    3.3020 n         1 MOL     -0.248573
     30 C10         3.3050    1.7940    3.9020 c3        1 MOL      0.056130
     31 C11         3.9220    0.8450    2.8420 c         1 MOL      0.153398
     32 O6          3.3280    0.6160    1.7660 o         1 MOL     -0.356230
     33 C12         2.6760    0.8850    4.9760 c3        1 MOL     -0.459219
     34 C13         1.3870    0.1610    4.5930 c         1 MOL      0.826196
     35 O7          0.8720    0.3640    3.4630 o         1 MOL     -0.704732
     36 O8          0.9670   -0.8210    5.2810 o         1 MOL     -0.704732
     37 H13         1.4290    2.4930    3.4320 hn        1 MOL      0.267635
     38 H14         4.1910    2.2870    4.3150 h1        1 MOL      0.064256
     39 H15         2.3570    1.5240    5.8000 hc        1 MOL      0.124087
     40 H16         3.4590    0.1780    5.2720 hc        1 MOL      0.124087
     41 N4          5.1130    0.3530    3.0790 n         1 MOL     -0.279001
     42 C14         5.7630   -0.6540    2.2070 c3        1 MOL     -0.071016
     43 C15         6.2610   -0.0640    0.9180 c         1 MOL      0.530266
     44 O9          6.4470    1.1190    0.8310 o         1 MOL     -0.464865
     45 H17         5.4740    0.4090    4.0200 hn        1 MOL      0.291979
     46 H18         5.0400   -1.4520    2.0180 h1        1 MOL      0.087913
     47 H19         6.6540   -1.0670    2.6710 h1        1 MOL      0.087913
     48 N5          6.7490   -0.8330   -0.0510 n         1 MOL     -0.443617
     49 C16         6.9880   -2.2600   -0.2000 c3        1 MOL      0.149474
     50 C17         6.3310   -2.7130   -1.4670 c         1 MOL      0.419522
     51 O10         6.4650   -3.9060   -1.8950 o         1 MOL     -0.471711
     52 C18         8.5480   -2.3830   -0.0830 c3        1 MOL     -0.398174
     53 C19         9.1210   -3.8170   -0.2270 c         1 MOL      0.736553
     54 N6          8.7950   -4.6900    0.6970 n         1 MOL     -0.901866
     55 O11         9.7880   -4.1690   -1.1610 o         1 MOL     -0.547012
     56 H20         7.0940   -0.3410   -0.8560 hn        1 MOL      0.297501
     57 H21         6.5980   -2.8860    0.6110 h1        1 MOL      0.008385
     58 H22         8.9120   -1.9440    0.8490 hc        1 MOL      0.124603
     59 H23         8.9910   -1.7890   -0.8680 hc        1 MOL      0.124603
     60 H24         8.0040   -4.4540    1.2840 hn        1 MOL      0.398913
     61 H25         9.2740   -5.5830    0.7270 hn        1 MOL      0.398913
     62 N7          5.6230   -1.8550   -2.2180 n         1 MOL     -0.217636
     63 C20         5.0330   -2.2940   -3.4990 c3        1 MOL     -0.368557
     64 C21         3.7210   -3.0070   -3.3290 c         1 MOL      0.590759
     65 O12         3.3980   -3.7300   -4.2560 o         1 MOL     -0.568706
     66 H26         5.5890   -0.8710   -1.9900 hn        1 MOL      0.254580
     67 H27         5.6960   -2.8410   -4.1640 h1        1 MOL      0.170459
     68 H28         4.7220   -1.3490   -3.9320 h1        1 MOL      0.170459
     69 N8          3.0380   -2.8620   -2.2020 n         1 MOL     -0.229928
     70 C22         1.9040   -3.7590   -1.9550 c3        1 MOL     -0.001957
     71 C23         0.5910   -3.1050   -1.7040 c         1 MOL      0.392799
     72 O13         0.5650   -1.9420   -1.3390 o         1 MOL     -0.571012
     73 C24         2.1530   -4.6280   -0.6620 c3        1 MOL      0.425689
     74 C25         3.2940   -5.6150   -0.6910 c3        1 MOL     -0.302630
     75 O14         2.3120   -3.7760    0.4420 oh        1 MOL     -0.596788
     76 H29         3.4400   -2.3290   -1.4420 hn        1 MOL      0.206889
     77 H30         1.8040   -4.5160   -2.7380 h1        1 MOL      0.057997
     78 H31         1.2870   -5.2580   -0.4420 h1        1 MOL     -0.012935
     79 H32         2.1720   -4.3270    1.2220 ho        1 MOL      0.349771
     80 H33         2.9380   -6.4250   -1.3210 hc        1 MOL      0.062764
     81 H34         4.1660   -5.1370   -1.1400 hc        1 MOL      0.062764
     82 H35         3.5970   -5.9520    0.3080 hc        1 MOL      0.062764
     83 N9         -0.5210   -3.7880   -1.9090 n         1 MOL     -0.316159
     84 C26        -1.8550   -3.2670   -1.6050 c3        1 MOL     -0.042788
     85 C27        -2.3790   -3.7430   -0.2150 c         1 MOL      0.207382
     86 O15        -2.2630   -4.9350    0.2420 o         1 MOL     -0.476708
     87 C28        -2.8320   -3.6660   -2.7000 c3        1 MOL      0.407896
     88 C29        -4.1700   -2.9630   -2.3760 c3        1 MOL      0.064842
     89 C30        -2.3610   -3.2430   -4.1310 c3        1 MOL     -0.392926
     90 C31        -5.3420   -3.0800   -3.3830 c3        1 MOL     -0.385327
     91 H36        -0.5190   -4.7650   -2.1760 hn        1 MOL      0.244473
     92 H37        -1.8180   -2.1750   -1.6340 h1        1 MOL      0.186709
     93 H38        -2.9570   -4.7460   -2.6430 hc        1 MOL     -0.080990
     94 H39        -3.9480   -1.8970   -2.3340 hc        1 MOL     -0.004567
     95 H40        -4.4840   -3.2880   -1.3850 hc        1 MOL     -0.004567
     96 H41        -3.1660   -3.3110   -4.8570 hc        1 MOL      0.077037
     97 H42        -1.9350   -2.2360   -4.0630 hc        1 MOL      0.077037
     98 H43        -1.5800   -3.9470   -4.4260 hc        1 MOL      0.077037
     99 H44        -6.1080   -2.3280   -3.1900 hc        1 MOL      0.080540
    100 H45        -5.1940   -2.9210   -4.4500 hc        1 MOL      0.080540
    101 H46        -5.8680   -4.0160   -3.1700 hc        1 MOL      0.080540
    102 N10        -2.8100   -2.7260    0.5790 n         1 MOL     -0.175101
    103 C32        -3.3570   -2.8280    1.9420 c3        1 MOL      0.060173
    104 C33        -4.6160   -1.9970    2.0830 c         1 MOL      0.457529
    105 O16        -5.2050   -2.1690    3.1900 o         1 MOL     -0.559903
    106 C34        -2.3450   -2.3060    3.0090 c3        1 MOL     -0.053360
    107 C35        -1.1200   -3.1080    2.8780 c         1 MOL      0.717063
    108 O17        -1.1100   -4.2480    3.3250 o         1 MOL     -0.692789
    109 O18        -0.1170   -2.5150    2.3740 o         1 MOL     -0.692789
    110 H47        -2.9280   -1.8520    0.0970 hn        1 MOL      0.057559
    111 H48        -3.5740   -3.8600    2.2100 h1        1 MOL      0.089228
    112 H49        -2.8510   -2.3870    3.9670 hc        1 MOL      0.018891
    113 H50        -2.1410   -1.2360    2.9010 hc        1 MOL      0.018891
    114 N11        -5.1220   -1.1310    1.1780 n         1 MOL     -0.522007
    115 C36        -6.4060   -0.4750    1.3010 c3        1 MOL      0.158125
    116 C37        -6.3850    0.9190    0.6720 c         1 MOL      0.244061
    117 O19        -6.9150    1.1100   -0.4100 o         1 MOL     -0.461428
    118 C38        -7.5300   -1.3570    0.5970 c3        1 MOL     -0.329713
    119 C39        -8.9810   -1.0920    0.7700 ca        1 MOL      0.167185
    120 C40        -9.5080   -0.8580    2.0270 ca        1 MOL     -0.130640
    121 C41        -9.8620   -1.1280   -0.3610 ca        1 MOL     -0.130640
    122 C42       -10.9300   -0.8820    2.1620 ca        1 MOL     -0.177126
    123 C43       -11.2560   -1.1000   -0.2840 ca        1 MOL     -0.177126
    124 C44       -11.7750   -0.9840    1.0130 ca        1 MOL     -0.092499
    125 H51        -4.5660   -0.8520    0.3880 hn        1 MOL      0.481286
    126 H52        -6.6150   -0.3390    2.3570 h1        1 MOL      0.067629
    127 H53        -7.3330   -2.3130    1.0840 hc        1 MOL      0.118813
    128 H54        -7.2520   -1.5080   -0.4500 hc        1 MOL      0.118813
    129 H55        -8.8050   -0.8330    2.8430 ha        1 MOL      0.114425
    130 H56        -9.4890   -1.3510   -1.3480 ha        1 MOL      0.114425
    131 H57       -11.3960   -0.6530    3.1140 ha        1 MOL      0.120737
    132 H58       -11.9390   -1.1730   -1.1020 ha        1 MOL      0.120737
    133 H59       -12.8470   -0.9600    1.1430 ha        1 MOL      0.084545
    134 N12        -5.6590    1.8950    1.2870 n         1 MOL      0.036987
    135 C45        -5.4280    3.2140    0.7060 c3        1 MOL     -0.036357
    136 C46        -5.0010    3.3650   -0.7530 c         1 MOL      0.275979
    137 O20        -5.3030    4.3590   -1.3730 o         1 MOL     -0.478870
    138 C47        -4.3710    3.9220    1.5680 c3        1 MOL      0.072861
    139 C48        -4.7880    3.3570    2.9590 c3        1 MOL     -0.147882
    140 C49        -5.0670    1.8340    2.6260 c3        1 MOL     -0.176276
    141 H60        -6.3820    3.7470    0.8100 h1        1 MOL      0.068230
    142 H61        -3.3580    3.6440    1.2600 hc        1 MOL      0.022172
    143 H62        -4.5190    4.9960    1.5430 hc        1 MOL      0.022172
    144 H63        -3.9540    3.4050    3.6730 hc        1 MOL      0.054838
    145 H64        -5.6980    3.7710    3.3810 hc        1 MOL      0.054838
    146 H65        -4.1230    1.2880    2.6040 h1        1 MOL      0.120826
    147 H66        -5.7300    1.4480    3.3940 h1        1 MOL      0.120826
    148 N13        -4.3980    2.3090   -1.3860 n         1 MOL      0.110914
    149 C50        -3.8460    2.3590   -2.7240 c3        1 MOL     -0.358761
    150 C51        -4.9620    2.1860   -3.7130 c         1 MOL      0.501240
    151 O21        -5.1810    3.0540   -4.5940 o         1 MOL     -0.545554
    152 C52        -2.7500    1.2670   -2.8940 c3        1 MOL      0.184275
    153 C53        -1.6720    1.1810   -1.8390 c3        1 MOL     -0.388659
    154 C54        -2.0260    0.3850   -0.5330 c         1 MOL      1.036962
    155 O22        -1.1490    0.1630    0.3000 o         1 MOL     -0.852627
    156 O23        -3.1300   -0.1200   -0.3820 o         1 MOL     -0.852627
    157 H67        -4.1950    1.4740   -0.8520 hn        1 MOL      0.063001
    158 H68        -3.4090    3.3570   -2.7870 h1        1 MOL      0.138832
    159 H69        -2.2910    1.3730   -3.8760 hc        1 MOL     -0.006668
    160 H70        -3.2890    0.3210   -2.9640 hc        1 MOL     -0.006668
    161 H71        -1.4190    2.1890   -1.4960 hc        1 MOL      0.085502
    162 H72        -0.7760    0.7270   -2.2410 hc        1 MOL      0.085502
    163 N14        -5.8410    1.2470   -3.3860 n         1 MOL     -0.174623
    164 C55        -7.0910    1.2540   -4.1500 c3        1 MOL     -0.379774
    165 H73        -7.8340    0.6430   -3.6370 h1        1 MOL      0.133882
    166 H74        -7.4590    2.2760   -4.2370 h1        1 MOL      0.133882
    167 H75        -6.9110    0.8470   -5.1460 h1        1 MOL      0.133882
    168 H76        -5.7410    0.7450   -2.5140 hn        1 MOL      0.249004
    169 Ca1         1.1280   -0.7810    1.0140 Ca        1 MOL      1.745248
    170 O24         1.2360    1.5510   -0.2750 oh        1 MOL     -0.872583
    171 H77         1.9040    2.2160   -0.1040 ho        1 MOL      0.414042
    172 H78         0.4050    2.0220   -0.2610 ho        1 MOL      0.414042
    173 O25         3.4650   -0.5110   -0.5910 oh        1 MOL     -0.872583
    174 H79         3.7750   -0.0450    0.1800 ho        1 MOL      0.414042
    175 H80         3.7550    0.0220   -1.3310 ho        1 MOL      0.414042
    176 O26         2.6630   -2.0270    3.0800 oh        1 MOL     -0.872583
    177 H81         2.1220   -2.0340    3.8700 ho        1 MOL      0.414042
    178 H82         3.2360   -2.7890    3.1690 ho        1 MOL      0.414042
@<TRIPOS>BOND
     1    1    2 1   
     2    1    4 1   
     3    1    5 1   
     4    1    6 1   
     5    2    3 2   
     6    2    7 1   
     7    7    8 1   
     8    7   15 1   
     9    8    9 1   
    10    8   11 1   
    11    8   16 1   
    12    9   10 2   
    13    9   19 1   
    14   11   12 1   
    15   11   17 1   
    16   11   18 1   
    17   12   13 1   
    18   12   14 1   
    19   19   20 1   
    20   19   24 1   
    21   20   21 1   
    22   20   23 1   
    23   20   25 1   
    24   21   22 2   
    25   21   29 1   
    26   23   26 1   
    27   23   27 1   
    28   23   28 1   
    29   29   30 1   
    30   29   37 1   
    31   30   31 1   
    32   30   33 1   
    33   30   38 1   
    34   31   32 2   
    35   31   41 1   
    36   33   34 1   
    37   33   39 1   
    38   33   40 1   
    39   34   35 1   
    40   34   36 1   
    41   41   42 1   
    42   41   45 1   
    43   42   43 1   
    44   42   46 1   
    45   42   47 1   
    46   43   44 2   
    47   43   48 1   
    48   48   49 1   
    49   48   56 1   
    50   49   50 1   
    51   49   52 1   
    52   49   57 1   
    53   50   51 2   
    54   50   62 1   
    55   52   53 1   
    56   52   58 1   
    57   52   59 1   
    58   53   54 1   
    59   53   55 2   
    60   54   60 1   
    61   54   61 1   
    62   62   63 1   
    63   62   66 1   
    64   63   64 1   
    65   63   67 1   
    66   63   68 1   
    67   64   65 2   
    68   64   69 1   
    69   69   70 1   
    70   69   76 1   
    71   70   71 1   
    72   70   73 1   
    73   70   77 1   
    74   71   72 2   
    75   71   83 1   
    76   73   74 1   
    77   73   75 1   
    78   73   78 1   
    79   74   80 1   
    80   74   81 1   
    81   74   82 1   
    82   75   79 1   
    83   83   84 1   
    84   83   91 1   
    85   84   85 1   
    86   84   87 1   
    87   84   92 1   
    88   85   86 2   
    89   85  102 1   
    90   87   88 1   
    91   87   89 1   
    92   87   93 1   
    93   88   90 1   
    94   88   94 1   
    95   88   95 1   
    96   89   96 1   
    97   89   97 1   
    98   89   98 1   
    99   90   99 1   
   100   90  100 1   
   101   90  101 1   
   102  102  103 1   
   103  102  110 1   
   104  103  104 1   
   105  103  106 1   
   106  103  111 1   
   107  104  105 2   
   108  104  114 1   
   109  106  107 1   
   110  106  112 1   
   111  106  113 1   
   112  107  108 1   
   113  107  109 1   
   114  114  115 1   
   115  114  125 1   
   116  115  116 1   
   117  115  118 1   
   118  115  126 1   
   119  116  117 2   
   120  116  134 1   
   121  118  119 1   
   122  118  127 1   
   123  118  128 1   
   124  119  120 ar  
   125  119  121 ar  
   126  120  122 ar  
   127  120  129 1   
   128  121  123 ar  
   129  121  130 1   
   130  122  124 ar  
   131  122  131 1   
   132  123  124 ar  
   133  123  132 1   
   134  124  133 1   
   135  134  135 1   
   136  134  140 1   
   137  135  136 1   
   138  135  138 1   
   139  135  141 1   
   140  136  137 2   
   141  136  148 1   
   142  138  139 1   
   143  138  142 1   
   144  138  143 1   
   145  139  140 1   
   146  139  144 1   
   147  139  145 1   
   148  140  146 1   
   149  140  147 1   
   150  148  149 1   
   151  148  157 1   
   152  149  150 1   
   153  149  152 1   
   154  149  158 1   
   155  150  151 2   
   156  150  163 1   
   157  152  153 1   
   158  152  159 1   
   159  152  160 1   
   160  153  154 1   
   161  153  161 1   
   162  153  162 1   
   163  154  155 1   
   164  154  156 1   
   165  163  164 1   
   166  163  168 1   
   167  164  165 1   
   168  164  166 1   
   169  164  167 1   
   170  170  171 1   
   171  170  172 1   
   172  173  174 1   
   173  173  175 1   
   174  176  177 1   
   175  176  178 1   
@<TRIPOS>SUBSTRUCTURE
     1 MOL         1 TEMP              0 ****  ****    0 ROOT
