@<TRIPOS>MOLECULE
MOL
  184   179     1     0     0
SMALL
resp


@<TRIPOS>ATOM
      1 C1         10.6260   -6.4410    3.5430 c3        1 MOL     -0.301177
      2 C2          9.9670   -6.5450    2.1490 c         1 MOL      0.664972
      3 O1          9.9180   -7.6190    1.6110 o         1 MOL     -0.626584
      4 H1          9.9290   -6.7970    4.3010 hc        1 MOL      0.080055
      5 H2         11.5290   -7.0510    3.5650 hc        1 MOL      0.080055
      6 H3         10.8850   -5.4010    3.7460 hc        1 MOL      0.080055
      7 N1          9.5740   -5.5040    1.4380 n         1 MOL     -0.392044
      8 C3          9.7610   -4.0740    1.6890 c3        1 MOL     -0.041916
      9 C4          9.9970   -3.3540    0.3780 c         1 MOL      0.115883
     10 O2          9.3200   -3.4480   -0.6230 o         1 MOL     -0.248029
     11 C5          8.5870   -3.4840    2.4810 c3        1 MOL      0.025263
     12 C6          7.2110   -4.0190    2.1440 c         1 MOL      0.472828
     13 O3          6.3470   -3.7660    3.0850 o         1 MOL     -0.623304
     14 O4          6.9900   -4.5930    1.0790 o         1 MOL     -0.623304
     15 H4          8.9810   -5.7660    0.6590 hn        1 MOL      0.269650
     16 H5         10.6320   -3.8490    2.3000 h1        1 MOL      0.072536
     17 H6          8.5950   -2.4020    2.3890 hc        1 MOL      0.029731
     18 H7          8.6760   -3.6480    3.5520 hc        1 MOL      0.029731
     19 N2         11.0030   -2.5010    0.4350 n         1 MOL     -0.285138
     20 C7         11.3230   -1.4030   -0.5510 c3        1 MOL      0.080892
     21 C8         10.1360   -0.4790   -0.9730 c         1 MOL      0.376935
     22 O5         10.1560    0.1280   -2.0130 o         1 MOL     -0.491725
     23 C9         12.1430   -1.9160   -1.7400 c3        1 MOL     -0.169065
     24 H8         11.5880   -2.5770    1.2540 hn        1 MOL      0.260683
     25 H9         12.0510   -0.8200    0.0130 h1        1 MOL      0.066123
     26 H10        12.8470   -2.6960   -1.4530 hc        1 MOL      0.051484
     27 H11        11.4630   -2.4130   -2.4340 hc        1 MOL      0.051484
     28 H12        12.5760   -1.0720   -2.2720 hc        1 MOL      0.051484
     29 N3          9.0150   -0.3450   -0.2230 n         1 MOL     -0.210099
     30 C10         8.0340    0.7260   -0.4050 c3        1 MOL      0.115488
     31 C11         8.4500    2.0800    0.0960 c         1 MOL      0.243225
     32 O6          8.6410    2.3230    1.3130 o         1 MOL     -0.469453
     33 C12         6.5510    0.3330   -0.0560 c3        1 MOL     -0.247348
     34 C13         6.0220   -0.8500   -0.8750 c         1 MOL      0.806679
     35 O7          6.3970   -1.9970   -0.4750 o         1 MOL     -0.716919
     36 O8          5.1480   -0.7820   -1.7370 o         1 MOL     -0.716919
     37 H13         8.9870   -0.8730    0.6390 hn        1 MOL      0.180575
     38 H14         7.9890    0.9280   -1.4710 h1        1 MOL      0.057215
     39 H15         5.9260    1.2080   -0.2080 hc        1 MOL      0.084010
     40 H16         6.4720   -0.0400    0.9590 hc        1 MOL      0.084010
     41 N4          8.7940    3.0250   -0.7840 n         1 MOL     -0.103589
     42 C14         9.2230    4.4040   -0.4210 c3        1 MOL     -0.380071
     43 C15         8.0980    5.2060    0.2580 c         1 MOL      0.654455
     44 O9          8.2960    5.8760    1.3100 o         1 MOL     -0.549917
     45 H17         8.7070    2.7230   -1.7420 hn        1 MOL      0.191360
     46 H18         9.5280    4.8870   -1.3590 h1        1 MOL      0.159381
     47 H19        10.1290    4.3280    0.1880 h1        1 MOL      0.159381
     48 N5          6.8440    5.0880   -0.2320 n         1 MOL     -0.378303
     49 C16         5.7430    5.9200    0.2440 c3        1 MOL      0.070676
     50 C17         4.3720    5.1890    0.3600 c         1 MOL      0.593788
     51 O10         4.1880    3.9540    0.1560 o         1 MOL     -0.481823
     52 C18         5.6290    7.0320   -0.8180 c3        1 MOL     -0.374647
     53 C19         6.7500    8.0760   -0.8580 c         1 MOL      0.647122
     54 N6          7.1660    8.6770    0.2780 n         1 MOL     -0.783567
     55 O11         7.3490    8.3830   -1.8510 o         1 MOL     -0.539999
     56 H20         6.6850    4.4620   -1.0090 hn        1 MOL      0.252569
     57 H21         6.0580    6.3840    1.1730 h1        1 MOL      0.051222
     58 H22         4.6540    7.5120   -0.7590 hc        1 MOL      0.117067
     59 H23         5.7190    6.6480   -1.8280 hc        1 MOL      0.117067
     60 H24         6.7660    8.3520    1.1350 hn        1 MOL      0.362827
     61 H25         7.7190    9.5280    0.2080 hn        1 MOL      0.362827
     62 N7          3.4120    6.0340    0.8010 n         1 MOL     -0.603284
     63 C20         2.0210    5.6880    1.0880 c3        1 MOL      0.169709
     64 C21         1.0750    5.8740   -0.0890 c         1 MOL      0.564336
     65 O12         1.5500    6.4210   -1.1060 o         1 MOL     -0.560671
     66 H26         3.6590    7.0120    0.8640 hn        1 MOL      0.330107
     67 H27         1.7480    6.3360    1.9310 h1        1 MOL      0.034881
     68 H28         1.8800    4.6600    1.4240 h1        1 MOL      0.034881
     69 N8         -0.2650    5.6590   -0.0500 n         1 MOL     -0.479519
     70 C22        -1.0120    4.9770    0.9740 c3        1 MOL     -0.048481
     71 C23        -2.0740    4.1320    0.2990 c         1 MOL      0.673066
     72 O13        -2.8550    4.6340   -0.4900 o         1 MOL     -0.528724
     73 C24        -1.6460    5.9210    2.0230 c3        1 MOL      0.286000
     74 C25        -2.1180    5.2160    3.3050 c3        1 MOL     -0.315802
     75 O14        -0.8300    6.9970    2.4850 oh        1 MOL     -0.652318
     76 H29        -0.7840    5.9720   -0.8700 hn        1 MOL      0.315469
     77 H30        -0.3300    4.2800    1.4810 h1        1 MOL      0.105239
     78 H31        -2.4820    6.4030    1.5220 h1        1 MOL      0.038315
     79 H32        -1.2960    7.4140    3.2130 ho        1 MOL      0.409987
     80 H33        -1.2350    5.0410    3.9180 hc        1 MOL      0.083168
     81 H34        -2.7970    5.8490    3.8740 hc        1 MOL      0.083168
     82 H35        -2.5920    4.2660    3.0380 hc        1 MOL      0.083168
     83 N9         -2.0860    2.7870    0.6350 n         1 MOL     -0.689769
     84 C26        -3.0950    1.7780    0.2370 c3        1 MOL      0.264316
     85 C27        -4.0780    1.5090    1.3210 c         1 MOL      0.390061
     86 O15        -3.6350    1.1170    2.3910 o         1 MOL     -0.546613
     87 C28        -2.4430    0.3970   -0.0510 c3        1 MOL      0.115151
     88 C29        -1.4510    0.5500   -1.2750 c3        1 MOL      0.130573
     89 C30        -3.5910   -0.5400   -0.4870 c3        1 MOL     -0.193657
     90 C31        -2.0910    0.6390   -2.6170 c3        1 MOL     -0.128513
     91 H36        -1.5510    2.5230    1.4580 hn        1 MOL      0.284133
     92 H37        -3.5600    2.1310   -0.6890 h1        1 MOL      0.135337
     93 H38        -1.8950    0.0280    0.8190 hc        1 MOL      0.004015
     94 H39        -0.7960   -0.3250   -1.1660 hc        1 MOL     -0.050380
     95 H40        -0.8360    1.4370   -1.1670 hc        1 MOL     -0.050380
     96 H41        -4.2950   -0.7300    0.3220 hc        1 MOL      0.041637
     97 H42        -4.0750    0.0640   -1.2540 hc        1 MOL      0.041637
     98 H43        -3.1150   -1.4350   -0.8770 hc        1 MOL      0.041637
     99 H44        -1.3410    0.8850   -3.3730 hc        1 MOL      0.017246
    100 H45        -2.4980   -0.3440   -2.8060 hc        1 MOL      0.017246
    101 H46        -2.8580    1.4190   -2.5960 hc        1 MOL      0.017246
    102 N10        -5.4020    1.6130    1.2830 n         1 MOL     -0.322272
    103 C32        -6.2640    1.8200    0.1120 c3        1 MOL     -0.110411
    104 C33        -7.5940    1.1580    0.4580 c         1 MOL      0.767576
    105 O16        -8.0990    1.2390    1.5720 o         1 MOL     -0.547895
    106 C34        -6.3640    3.3920   -0.1100 c3        1 MOL     -0.215089
    107 C35        -7.4770    3.6870   -1.0690 c         1 MOL      0.770466
    108 O17        -7.5610    2.8870   -2.0330 o         1 MOL     -0.739971
    109 O18        -8.2130    4.6740   -0.9210 o         1 MOL     -0.739971
    110 H47        -5.8890    1.3870    2.1450 hn        1 MOL      0.283204
    111 H48        -5.8100    1.4270   -0.7990 h1        1 MOL      0.051070
    112 H49        -5.4530    3.7910   -0.5580 hc        1 MOL      0.042733
    113 H50        -6.4630    3.8570    0.8740 hc        1 MOL      0.042733
    114 N11        -8.1660    0.5780   -0.6150 n         1 MOL     -0.896380
    115 C36        -9.5270    0.1380   -0.6600 c3        1 MOL      0.501304
    116 C37        -9.7650   -0.9010   -1.8470 c         1 MOL      0.291853
    117 O19        -9.4300   -0.5820   -2.9780 o         1 MOL     -0.494861
    118 C38       -10.5050    1.3320   -0.7030 c3        1 MOL     -0.120034
    119 C39       -11.9510    0.8600   -0.8760 ca        1 MOL      0.042473
    120 C40       -12.6070    0.4900   -2.0790 ca        1 MOL     -0.139639
    121 C41       -12.7660    0.7560    0.2780 ca        1 MOL     -0.139639
    122 C42       -13.9110    0.0070   -2.1790 ca        1 MOL     -0.129181
    123 C43       -14.0330    0.2500    0.2360 ca        1 MOL     -0.129181
    124 C44       -14.6090   -0.1890   -0.9810 ca        1 MOL     -0.134322
    125 H51        -7.7950    0.7620   -1.5350 hn        1 MOL      0.404819
    126 H52        -9.7530   -0.2430    0.3390 h1        1 MOL     -0.036352
    127 H53       -10.2720    1.9370   -1.5870 hc        1 MOL      0.079728
    128 H54       -10.3970    1.9290    0.1990 hc        1 MOL      0.079728
    129 H55       -12.0170    0.5970   -2.9740 ha        1 MOL      0.114091
    130 H56       -12.3200    1.0300    1.2230 ha        1 MOL      0.114091
    131 H57       -14.3260   -0.2830   -3.1350 ha        1 MOL      0.102443
    132 H58       -14.6310    0.1090    1.1220 ha        1 MOL      0.102443
    133 H59       -15.5960   -0.6130   -0.9120 ha        1 MOL      0.087911
    134 N12       -10.5180   -1.9990   -1.5310 n         1 MOL     -0.030517
    135 C45       -11.1210   -2.3630   -0.2060 c3        1 MOL      0.098488
    136 C46       -10.0450   -2.8850    0.7880 c         1 MOL      0.469553
    137 O20       -10.3310   -3.0380    2.0050 o         1 MOL     -0.535885
    138 C47       -12.0710   -3.4630   -0.5940 c3        1 MOL     -0.073593
    139 C48       -11.4900   -4.2120   -1.7830 c3        1 MOL     -0.035632
    140 C49       -10.5750   -3.1310   -2.4760 c3        1 MOL     -0.051433
    141 H60       -11.7240   -1.5870    0.2830 h1        1 MOL      0.011723
    142 H61       -12.2340   -4.0810    0.2950 hc        1 MOL      0.024946
    143 H62       -13.0480   -3.0600   -0.8740 hc        1 MOL      0.024946
    144 H63       -10.7630   -4.9550   -1.4530 hc        1 MOL      0.016289
    145 H64       -12.2640   -4.6120   -2.4480 hc        1 MOL      0.016289
    146 H65        -9.6130   -3.6100   -2.6270 h1        1 MOL      0.039108
    147 H66       -11.0270   -2.7040   -3.3730 h1        1 MOL      0.039108
    148 N13        -8.8200   -3.1280    0.2980 n         1 MOL     -0.397905
    149 C50        -7.7930   -3.9540    0.9760 c3        1 MOL      0.283893
    150 C51        -7.4790   -5.1690    0.0650 c         1 MOL      0.375372
    151 O21        -7.6660   -5.1420   -1.1500 o         1 MOL     -0.532331
    152 C52        -6.5340   -3.1600    1.1450 c3        1 MOL     -0.382828
    153 C53        -6.7850   -1.8690    2.0220 c3        1 MOL     -0.061902
    154 C54        -6.4830   -2.2560    3.4950 c         1 MOL      0.722352
    155 O22        -5.4720   -1.8540    4.0690 o         1 MOL     -0.676856
    156 O23        -7.3480   -2.9170    4.0600 o         1 MOL     -0.676856
    157 H67        -8.7320   -3.1630   -0.7040 hn        1 MOL      0.258230
    158 H68        -8.2060   -4.2940    1.9260 h1        1 MOL      0.048419
    159 H69        -6.1190   -3.0090    0.1540 hc        1 MOL      0.109335
    160 H70        -5.7900   -3.8140    1.5860 hc        1 MOL      0.109335
    161 H71        -7.7910   -1.4520    1.9380 hc        1 MOL      0.040332
    162 H72        -6.0990   -1.0690    1.7540 hc        1 MOL      0.040332
    163 N14        -6.8830   -6.2730    0.5830 n         1 MOL     -0.367352
    164 C55        -6.5300   -6.5100    2.0070 c3        1 MOL     -0.074599
    165 H73        -7.3920   -6.9230    2.5310 h1        1 MOL      0.068245
    166 H74        -5.7000   -7.2140    2.0640 h1        1 MOL      0.068245
    167 H75        -6.2390   -5.5680    2.4710 h1        1 MOL      0.068245
    168 H76        -6.6770   -6.9940   -0.0920 hn        1 MOL      0.266340
    169 Ca1         6.8360   -4.2420   -1.4470 Ca        1 MOL      1.628462
    170 O24         4.6610   -5.7490   -1.1560 oh        1 MOL     -0.820946
    171 H77         3.9070   -5.5250   -1.7120 ho        1 MOL      0.391190
    172 H78         4.2890   -6.2430   -0.4340 ho        1 MOL      0.391190
    173 O25         4.8760   -3.2020   -2.7370 oh        1 MOL     -0.820946
    174 H79         4.5550   -2.3300   -2.4740 ho        1 MOL      0.391190
    175 H80         4.3400   -3.4350   -3.4950 ho        1 MOL      0.391190
    176 O26         8.1330   -2.5230   -3.2050 oh        1 MOL     -0.820946
    177 H81         8.9290   -2.9630   -3.4880 ho        1 MOL      0.391190
    178 H82         7.7380   -2.1870   -4.0050 ho        1 MOL      0.391190
    179 O27         6.7680   -5.5660   -3.7830 oh        1 MOL     -0.820946
    180 H83         5.9240   -5.4880   -4.2280 ho        1 MOL      0.391190
    181 H84         6.9250   -6.5080   -3.7460 ho        1 MOL      0.391190
    182 O28         8.4870   -6.2650   -1.7650 oh        1 MOL     -0.820946
    183 H85         9.3710   -6.3070   -2.1180 ho        1 MOL      0.391190
    184 H86         8.3730   -7.0740   -1.2770 ho        1 MOL      0.391190
@<TRIPOS>BOND
     1    1    2 1   
     2    1    4 1   
     3    1    5 1   
     4    1    6 1   
     5    2    3 2   
     6    2    7 1   
     7    7    8 1   
     8    7   15 1   
     9    8    9 1   
    10    8   11 1   
    11    8   16 1   
    12    9   10 2   
    13    9   19 1   
    14   11   12 1   
    15   11   17 1   
    16   11   18 1   
    17   12   13 1   
    18   12   14 1   
    19   19   20 1   
    20   19   24 1   
    21   20   21 1   
    22   20   23 1   
    23   20   25 1   
    24   21   22 2   
    25   21   29 1   
    26   23   26 1   
    27   23   27 1   
    28   23   28 1   
    29   29   30 1   
    30   29   37 1   
    31   30   31 1   
    32   30   33 1   
    33   30   38 1   
    34   31   32 2   
    35   31   41 1   
    36   33   34 1   
    37   33   39 1   
    38   33   40 1   
    39   34   35 1   
    40   34   36 1   
    41   41   42 1   
    42   41   45 1   
    43   42   43 1   
    44   42   46 1   
    45   42   47 1   
    46   43   44 2   
    47   43   48 1   
    48   48   49 1   
    49   48   56 1   
    50   49   50 1   
    51   49   52 1   
    52   49   57 1   
    53   50   51 2   
    54   50   62 1   
    55   52   53 1   
    56   52   58 1   
    57   52   59 1   
    58   53   54 1   
    59   53   55 2   
    60   54   60 1   
    61   54   61 1   
    62   62   63 1   
    63   62   66 1   
    64   63   64 1   
    65   63   67 1   
    66   63   68 1   
    67   64   65 2   
    68   64   69 1   
    69   69   70 1   
    70   69   76 1   
    71   70   71 1   
    72   70   73 1   
    73   70   77 1   
    74   71   72 2   
    75   71   83 1   
    76   73   74 1   
    77   73   75 1   
    78   73   78 1   
    79   74   80 1   
    80   74   81 1   
    81   74   82 1   
    82   75   79 1   
    83   83   84 1   
    84   83   91 1   
    85   84   85 1   
    86   84   87 1   
    87   84   92 1   
    88   85   86 2   
    89   85  102 1   
    90   87   88 1   
    91   87   89 1   
    92   87   93 1   
    93   88   90 1   
    94   88   94 1   
    95   88   95 1   
    96   89   96 1   
    97   89   97 1   
    98   89   98 1   
    99   90   99 1   
   100   90  100 1   
   101   90  101 1   
   102  102  103 1   
   103  102  110 1   
   104  103  104 1   
   105  103  106 1   
   106  103  111 1   
   107  104  105 2   
   108  104  114 1   
   109  106  107 1   
   110  106  112 1   
   111  106  113 1   
   112  107  108 1   
   113  107  109 1   
   114  114  115 1   
   115  114  125 1   
   116  115  116 1   
   117  115  118 1   
   118  115  126 1   
   119  116  117 2   
   120  116  134 1   
   121  118  119 1   
   122  118  127 1   
   123  118  128 1   
   124  119  120 ar  
   125  119  121 ar  
   126  120  122 ar  
   127  120  129 1   
   128  121  123 ar  
   129  121  130 1   
   130  122  124 ar  
   131  122  131 1   
   132  123  124 ar  
   133  123  132 1   
   134  124  133 1   
   135  134  135 1   
   136  134  140 1   
   137  135  136 1   
   138  135  138 1   
   139  135  141 1   
   140  136  137 2   
   141  136  148 1   
   142  138  139 1   
   143  138  142 1   
   144  138  143 1   
   145  139  140 1   
   146  139  144 1   
   147  139  145 1   
   148  140  146 1   
   149  140  147 1   
   150  148  149 1   
   151  148  157 1   
   152  149  150 1   
   153  149  152 1   
   154  149  158 1   
   155  150  151 2   
   156  150  163 1   
   157  152  153 1   
   158  152  159 1   
   159  152  160 1   
   160  153  154 1   
   161  153  161 1   
   162  153  162 1   
   163  154  155 1   
   164  154  156 1   
   165  163  164 1   
   166  163  168 1   
   167  164  165 1   
   168  164  166 1   
   169  164  167 1   
   170  170  171 1   
   171  170  172 1   
   172  173  174 1   
   173  173  175 1   
   174  176  177 1   
   175  176  178 1   
   176  179  180 1   
   177  179  181 1   
   178  182  183 1   
   179  182  184 1   
@<TRIPOS>SUBSTRUCTURE
     1 MOL         1 TEMP              0 ****  ****    0 ROOT
