@<TRIPOS>MOLECULE
MOL
  189   185     1     0     0
SMALL
resp


@<TRIPOS>ATOM
      1 C1          3.9460    4.6020   -2.8850 c3        1 MOL     -0.514042
      2 C2          4.8280    3.8010   -1.9770 c         1 MOL      0.900904
      3 O1          4.4530    3.4310   -0.9030 o         1 MOL     -0.619407
      4 H1          3.4340    3.9320   -3.5760 hc        1 MOL      0.127295
      5 H2          3.2100    5.1450   -2.2930 hc        1 MOL      0.127295
      6 H3          4.5530    5.3100   -3.4500 hc        1 MOL      0.127295
      7 N1          6.0710    3.5200   -2.4220 n         1 MOL     -0.722062
      8 C3          6.9700    2.5030   -1.8370 c3        1 MOL      0.378664
      9 C4          6.2200    1.2060   -1.5520 c         1 MOL      0.197333
     10 O2          5.8100    0.7900   -0.4830 o         1 MOL     -0.394382
     11 C5          7.7670    3.0200   -0.6530 c3        1 MOL     -0.225871
     12 C6          7.1090    3.7890    0.4900 c         1 MOL      0.694424
     13 O3          6.3890    3.3040    1.3620 o         1 MOL     -0.698881
     14 O4          7.2030    5.0360    0.4310 o         1 MOL     -0.698881
     15 H4          6.3960    3.9890   -3.2540 hn        1 MOL      0.318783
     16 H5          7.7480    2.3560   -2.5820 h1        1 MOL      0.012814
     17 H6          8.5510    3.7020   -0.9770 hc        1 MOL      0.021717
     18 H7          8.4130    2.2470   -0.2430 hc        1 MOL      0.021717
     19 N2          5.7820    0.7220   -2.7430 n         1 MOL     -0.486042
     20 C7          4.9650   -0.5160   -3.0930 c3        1 MOL      0.252434
     21 C8          5.6810   -1.8000   -2.6700 c         1 MOL      0.243530
     22 O5          6.0760   -2.6170   -3.4830 o         1 MOL     -0.538271
     23 C9          3.4680   -0.4840   -2.7050 c3        1 MOL      0.446284
     24 C10         2.6130   -1.6710   -3.2120 c3        1 MOL     -0.048141
     25 C11         2.8000    0.7890   -3.1540 c3        1 MOL     -0.192078
     26 C12         2.7410   -2.0130   -4.6720 c3        1 MOL     -0.327092
     27 H8          6.1790    1.1310   -3.5790 hn        1 MOL      0.263597
     28 H9          4.9440   -0.4880   -4.1860 h1        1 MOL     -0.031921
     29 H10         3.5190   -0.5750   -1.6180 hc        1 MOL     -0.201053
     30 H11         1.5620   -1.5520   -2.9870 hc        1 MOL      0.082786
     31 H12         2.9500   -2.5840   -2.7130 hc        1 MOL      0.082786
     32 H13         3.3420    1.6450   -2.7420 hc        1 MOL      0.000770
     33 H14         2.9080    0.8700   -4.2380 hc        1 MOL      0.000770
     34 H15         1.7730    0.6960   -2.8120 hc        1 MOL      0.000770
     35 H16         3.8140   -2.1250   -4.8470 hc        1 MOL      0.059734
     36 H17         2.3670   -3.0300   -4.7770 hc        1 MOL      0.059734
     37 H18         2.2580   -1.3290   -5.3700 hc        1 MOL      0.059734
     38 N3          5.9830   -1.9070   -1.3880 n         1 MOL     -0.022643
     39 C13         6.7620   -2.9850   -0.7850 c3        1 MOL     -0.074724
     40 C14         6.0370   -4.3740   -0.8330 c         1 MOL      0.620606
     41 O6          6.6210   -5.3260   -1.3220 o         1 MOL     -0.545124
     42 C15         7.2550   -2.5290    0.6050 c3        1 MOL     -0.235987
     43 C16         8.2330   -3.5870    1.2220 c         1 MOL      0.721022
     44 O7          9.4410   -3.2610    1.0930 o         1 MOL     -0.732415
     45 O8          7.8160   -4.5300    1.9060 o         1 MOL     -0.732415
     46 H19         5.7880   -1.1110   -0.7900 hn        1 MOL      0.254755
     47 H20         7.6580   -3.1750   -1.3800 h1        1 MOL      0.065224
     48 H21         6.3580   -2.4760    1.2260 hc        1 MOL      0.058156
     49 H22         7.7610   -1.5720    0.5260 hc        1 MOL      0.058156
     50 N4          4.7100   -4.5560   -0.4180 n         1 MOL     -0.549478
     51 C17         3.9000   -3.4960    0.2460 c3        1 MOL      0.044362
     52 C18         2.7110   -4.0040    1.0700 c         1 MOL      0.651512
     53 O9          2.2300   -5.0860    0.8680 o         1 MOL     -0.611478
     54 H23         4.1860   -5.4160   -0.5110 hn        1 MOL      0.301084
     55 H24         3.4320   -2.8520   -0.5010 h1        1 MOL      0.035529
     56 H25         4.3710   -2.8410    0.9790 h1        1 MOL      0.035529
     57 N5          2.1150   -3.3510    2.0470 n         1 MOL     -0.493609
     58 C19         2.2070   -1.9290    2.3870 c3        1 MOL      0.197706
     59 C20         2.2510   -0.9680    1.1970 c         1 MOL      0.007870
     60 O10         3.3680   -0.5690    0.8410 o         1 MOL     -0.515688
     61 C21         3.3240   -1.7610    3.4820 c3        1 MOL     -0.303128
     62 C22         3.5490   -0.3560    3.9230 c         1 MOL      0.784717
     63 O11         4.2760   -0.1510    4.9490 o         1 MOL     -0.733725
     64 O12         3.0620    0.6660    3.3580 o         1 MOL     -0.733725
     65 H26         1.4120   -3.8840    2.5420 hn        1 MOL      0.277137
     66 H27         1.2940   -1.7820    2.9730 h1        1 MOL      0.097903
     67 H28         4.2760   -2.1050    3.0840 hc        1 MOL      0.102023
     68 H29         3.1550   -2.4040    4.3570 hc        1 MOL      0.102023
     69 N6          1.1740   -0.5910    0.5060 n         1 MOL      0.127847
     70 C23        -0.2370   -0.9920    0.6500 c3        1 MOL     -0.117311
     71 C24        -0.5360   -2.2850   -0.0870 c         1 MOL      0.493975
     72 O13         0.1940   -2.6710   -1.0200 o         1 MOL     -0.527181
     73 H30         1.3720    0.1570   -0.1420 hn        1 MOL      0.088543
     74 H31        -0.9350   -0.2940    0.1860 h1        1 MOL      0.043365
     75 H32        -0.4300   -1.1680    1.7070 h1        1 MOL      0.043365
     76 N7         -1.6420   -2.9300    0.2250 n         1 MOL     -0.353448
     77 C25        -2.0430   -4.1900   -0.4780 c3        1 MOL     -0.068400
     78 C26        -2.7220   -3.9340   -1.8660 c         1 MOL      0.197721
     79 O14        -2.6050   -4.7530   -2.8270 o         1 MOL     -0.489903
     80 C27        -2.9690   -4.9210    0.4860 c3        1 MOL      0.291506
     81 C28        -2.3650   -5.5490    1.7380 c3        1 MOL     -0.411655
     82 C29        -2.3660   -4.5530    2.9060 c         1 MOL      0.660388
     83 N8         -3.5200   -4.1690    3.4430 n         1 MOL     -0.812514
     84 O15        -1.3120   -4.0410    3.2420 o         1 MOL     -0.518266
     85 H33        -2.1410   -2.5240    1.0070 hn        1 MOL      0.285839
     86 H34        -1.2100   -4.8780   -0.6340 h1        1 MOL      0.194853
     87 H35        -3.4290   -5.7180   -0.0950 hc        1 MOL     -0.047025
     88 H36        -3.8350   -4.3100    0.7440 hc        1 MOL     -0.047025
     89 H37        -1.3630   -5.8380    1.4500 hc        1 MOL      0.117065
     90 H38        -2.9380   -6.4480    1.9580 hc        1 MOL      0.117065
     91 H39        -4.4350   -4.4810    3.1290 hn        1 MOL      0.364029
     92 H40        -3.5300   -3.5820    4.2560 hn        1 MOL      0.364029
     93 N9         -3.1080   -2.7240   -2.2380 n         1 MOL      0.046981
     94 C30        -3.5360   -2.1920   -3.5600 c3        1 MOL     -0.378624
     95 C31        -4.9120   -1.6770   -3.7270 c         1 MOL      0.583644
     96 O16        -5.2240   -1.1770   -4.8240 o         1 MOL     -0.541976
     97 C32        -2.4130   -1.1820   -4.1780 c3        1 MOL      0.294694
     98 C33        -0.9890   -1.7760   -4.3310 c3        1 MOL     -0.274430
     99 C34        -2.3490    0.0880   -3.3900 c3        1 MOL     -0.274430
    100 H41        -3.0730   -2.0610   -1.4840 hn        1 MOL      0.111415
    101 H42        -3.5760   -3.0530   -4.2220 h1        1 MOL      0.170788
    102 H43        -2.6540   -0.9390   -5.2100 hc        1 MOL     -0.007148
    103 H44        -1.0060   -2.7510   -4.8120 hc        1 MOL      0.072358
    104 H45        -0.3880   -1.0250   -4.8310 hc        1 MOL      0.072358
    105 H46        -0.6240   -1.8360   -3.3010 hc        1 MOL      0.072358
    106 H47        -3.3250    0.5740   -3.4030 hc        1 MOL      0.072358
    107 H48        -1.9520   -0.0650   -2.3850 hc        1 MOL      0.072358
    108 H49        -1.6560    0.7770   -3.8620 hc        1 MOL      0.072358
    109 N10        -5.6880   -1.8280   -2.6440 n         1 MOL     -0.446368
    110 C35        -7.1020   -1.2830   -2.6490 c3        1 MOL      0.187453
    111 C36        -7.2460   -0.0270   -1.7870 c         1 MOL      0.518729
    112 O17        -8.1640    0.7430   -2.0350 o         1 MOL     -0.556155
    113 C37        -7.9490   -2.4360   -2.0710 c3        1 MOL     -0.382280
    114 C38        -9.4100   -2.1300   -1.7280 c         1 MOL      0.768216
    115 N11       -10.2070   -1.6860   -2.6700 n         1 MOL     -0.845516
    116 O18        -9.8060   -2.3730   -0.5690 o         1 MOL     -0.598693
    117 H50        -5.2720   -2.2460   -1.8230 hn        1 MOL      0.272176
    118 H51        -7.4090   -1.0650   -3.6690 h1        1 MOL      0.051329
    119 H52        -7.4430   -2.9570   -1.2570 hc        1 MOL      0.108474
    120 H53        -8.0280   -3.1600   -2.8780 hc        1 MOL      0.108474
    121 H54        -9.8280   -1.3120   -3.5190 hn        1 MOL      0.380300
    122 H55       -11.2070   -1.5930   -2.5090 hn        1 MOL      0.380300
    123 N12        -6.4200    0.2820   -0.7960 n         1 MOL     -0.462046
    124 C39        -6.4560    1.5160    0.0270 c3        1 MOL      0.188848
    125 C40        -5.1650    2.1220    0.5360 c         1 MOL      0.552127
    126 O19        -4.0540    1.5300    0.4340 o         1 MOL     -0.520125
    127 C41        -7.4380    1.3840    1.1790 c3        1 MOL     -0.285313
    128 C42        -7.1450    0.3200    2.1850 ca        1 MOL      0.109031
    129 C43        -6.1200    0.4480    3.1800 ca        1 MOL     -0.231880
    130 C44        -7.8410   -0.9320    2.0950 ca        1 MOL     -0.231880
    131 C45        -5.7110   -0.6490    3.9220 ca        1 MOL     -0.192702
    132 C46        -7.4410   -2.0060    2.9400 ca        1 MOL     -0.192702
    133 C47        -6.3500   -1.9270    3.7910 ca        1 MOL      0.331239
    134 O20        -6.0820   -3.0160    4.5170 oh        1 MOL     -0.591534
    135 H56        -5.6980   -0.3840   -0.5450 hn        1 MOL      0.248533
    136 H57        -6.8070    2.2690   -0.6820 h1        1 MOL      0.042636
    137 H58        -8.3890    1.0910    0.7360 hc        1 MOL      0.091572
    138 H59        -7.5730    2.3900    1.5780 hc        1 MOL      0.091572
    139 H60        -5.5880    1.3720    3.3070 ha        1 MOL      0.179507
    140 H61        -8.5830   -1.1000    1.3250 ha        1 MOL      0.179507
    141 H62        -4.9680   -0.6450    4.7080 ha        1 MOL      0.116947
    142 H63        -7.9780   -2.9360    2.8290 ha        1 MOL      0.116947
    143 H64        -5.4910   -2.8170    5.2510 ho        1 MOL      0.441039
    144 N13        -5.2760    3.3970    0.8830 n         1 MOL     -0.585732
    145 C48        -4.3010    4.3450    1.4150 c3        1 MOL      0.063107
    146 C49        -3.1090    4.7400    0.5700 c         1 MOL      0.526431
    147 O21        -2.6200    5.8870    0.7590 o         1 MOL     -0.547703
    148 C50        -4.0260    4.0100    2.8880 c3        1 MOL      0.159591
    149 C51        -2.8760    3.0730    3.1960 c3        1 MOL     -0.312753
    150 C52        -2.8440    2.8820    4.7590 c         1 MOL      0.709102
    151 O22        -2.8990    1.6950    5.2600 o         1 MOL     -0.714646
    152 O23        -2.8570    3.8630    5.5390 o         1 MOL     -0.714646
    153 H65        -6.2220    3.6420    1.1160 hn        1 MOL      0.311468
    154 H66        -4.8390    5.2970    1.4640 h1        1 MOL      0.041733
    155 H67        -4.9580    3.6890    3.3670 hc        1 MOL     -0.018120
    156 H68        -3.8860    4.9120    3.4780 hc        1 MOL     -0.018120
    157 H69        -1.9090    3.4110    2.8280 hc        1 MOL      0.080499
    158 H70        -3.0530    2.0980    2.7410 hc        1 MOL      0.080499
    159 N14        -2.7450    3.9960   -0.4820 n         1 MOL     -0.478201
    160 C53        -1.5790    4.3360   -1.2600 c3        1 MOL     -0.029344
    161 C54        -1.9010    5.3840   -2.3540 c         1 MOL      0.436692
    162 O24        -0.9840    5.8210   -3.0170 o         1 MOL     -0.534407
    163 C55        -0.8010    3.1140   -1.7890 c3        1 MOL     -0.048834
    164 C56        -0.3060    2.0960   -0.7380 c3        1 MOL      0.283508
    165 C57         0.7840    2.5100    0.3370 c         1 MOL      0.478309
    166 O25         0.3840    3.1720    1.3120 o         1 MOL     -0.583457
    167 O26         1.9810    2.1320    0.1780 o         1 MOL     -0.583457
    168 H71        -3.0620    3.0390   -0.5700 hn        1 MOL      0.266538
    169 H72        -0.8140    4.7790   -0.6250 h1        1 MOL      0.162916
    170 H73         0.0630    3.5200   -2.3120 hc        1 MOL      0.006550
    171 H74        -1.4010    2.6470   -2.5750 hc        1 MOL      0.006550
    172 H75         0.0600    1.2880   -1.3690 hc        1 MOL     -0.066271
    173 H76        -1.1860    1.7370   -0.2020 hc        1 MOL     -0.066271
    174 N15        -3.1430    5.8200   -2.4570 n         1 MOL     -0.225880
    175 C58        -3.6030    6.9350   -3.3470 c3        1 MOL     -0.103383
    176 H77        -4.2640    6.5350   -4.1170 h1        1 MOL      0.064137
    177 H78        -4.1410    7.6750   -2.7550 h1        1 MOL      0.064137
    178 H79        -2.7400    7.4040   -3.8190 h1        1 MOL      0.064137
    179 H80        -3.8700    5.3860   -1.9070 hn        1 MOL      0.214871
    180 Ca1         4.2200    1.9580    1.3810 Ca        1 MOL      1.788246
    181 O27         6.3380    0.3170    2.2610 oh        1 MOL     -0.866675
    182 H81         7.1480    0.8360    2.3030 ho        1 MOL      0.403054
    183 H82         6.5800   -0.5320    2.6400 ho        1 MOL      0.403054
    184 O28         2.9370    4.2740    2.1880 oh        1 MOL     -0.866675
    185 H83         2.0350    4.1950    1.8760 ho        1 MOL      0.403054
    186 H84         2.9350    5.0540    2.7510 ho        1 MOL      0.403054
    187 O29         5.0630    2.3710    4.1590 oh        1 MOL     -0.866675
    188 H85         4.4680    1.6580    4.4220 ho        1 MOL      0.403054
    189 H86         5.7470    2.3600    4.8270 ho        1 MOL      0.403054
@<TRIPOS>BOND
     1    1    2 1   
     2    1    4 1   
     3    1    5 1   
     4    1    6 1   
     5    2    3 2   
     6    2    7 1   
     7    7    8 1   
     8    7   15 1   
     9    8    9 1   
    10    8   11 1   
    11    8   16 1   
    12    9   10 2   
    13    9   19 1   
    14   11   12 1   
    15   11   17 1   
    16   11   18 1   
    17   12   13 1   
    18   12   14 1   
    19   19   20 1   
    20   19   27 1   
    21   20   21 1   
    22   20   23 1   
    23   20   28 1   
    24   21   22 2   
    25   21   38 1   
    26   23   24 1   
    27   23   25 1   
    28   23   29 1   
    29   24   26 1   
    30   24   30 1   
    31   24   31 1   
    32   25   32 1   
    33   25   33 1   
    34   25   34 1   
    35   26   35 1   
    36   26   36 1   
    37   26   37 1   
    38   38   39 1   
    39   38   46 1   
    40   39   40 1   
    41   39   42 1   
    42   39   47 1   
    43   40   41 2   
    44   40   50 1   
    45   42   43 1   
    46   42   48 1   
    47   42   49 1   
    48   43   44 1   
    49   43   45 1   
    50   50   51 1   
    51   50   54 1   
    52   51   52 1   
    53   51   55 1   
    54   51   56 1   
    55   52   53 2   
    56   52   57 1   
    57   57   58 1   
    58   57   65 1   
    59   58   59 1   
    60   58   61 1   
    61   58   66 1   
    62   59   60 2   
    63   59   69 1   
    64   61   62 1   
    65   61   67 1   
    66   61   68 1   
    67   62   63 1   
    68   62   64 1   
    69   69   70 1   
    70   69   73 1   
    71   70   71 1   
    72   70   74 1   
    73   70   75 1   
    74   71   72 2   
    75   71   76 1   
    76   76   77 1   
    77   76   85 1   
    78   77   78 1   
    79   77   80 1   
    80   77   86 1   
    81   78   79 2   
    82   78   93 1   
    83   80   81 1   
    84   80   87 1   
    85   80   88 1   
    86   81   82 1   
    87   81   89 1   
    88   81   90 1   
    89   82   83 1   
    90   82   84 2   
    91   83   91 1   
    92   83   92 1   
    93   93   94 1   
    94   93  100 1   
    95   94   95 1   
    96   94   97 1   
    97   94  101 1   
    98   95   96 2   
    99   95  109 1   
   100   97   98 1   
   101   97   99 1   
   102   97  102 1   
   103   98  103 1   
   104   98  104 1   
   105   98  105 1   
   106   99  106 1   
   107   99  107 1   
   108   99  108 1   
   109  109  110 1   
   110  109  117 1   
   111  110  111 1   
   112  110  113 1   
   113  110  118 1   
   114  111  112 2   
   115  111  123 1   
   116  113  114 1   
   117  113  119 1   
   118  113  120 1   
   119  114  115 1   
   120  114  116 2   
   121  115  121 1   
   122  115  122 1   
   123  123  124 1   
   124  123  135 1   
   125  124  125 1   
   126  124  127 1   
   127  124  136 1   
   128  125  126 2   
   129  125  144 1   
   130  127  128 1   
   131  127  137 1   
   132  127  138 1   
   133  128  129 ar  
   134  128  130 ar  
   135  129  131 ar  
   136  129  139 1   
   137  130  132 ar  
   138  130  140 1   
   139  131  133 ar  
   140  131  141 1   
   141  132  133 ar  
   142  132  142 1   
   143  133  134 1   
   144  134  143 1   
   145  144  145 1   
   146  144  153 1   
   147  145  146 1   
   148  145  148 1   
   149  145  154 1   
   150  146  147 2   
   151  146  159 1   
   152  148  149 1   
   153  148  155 1   
   154  148  156 1   
   155  149  150 1   
   156  149  157 1   
   157  149  158 1   
   158  150  151 1   
   159  150  152 1   
   160  159  160 1   
   161  159  168 1   
   162  160  161 1   
   163  160  163 1   
   164  160  169 1   
   165  161  162 2   
   166  161  174 1   
   167  163  164 1   
   168  163  170 1   
   169  163  171 1   
   170  164  165 1   
   171  164  172 1   
   172  164  173 1   
   173  165  166 1   
   174  165  167 1   
   175  174  175 1   
   176  174  179 1   
   177  175  176 1   
   178  175  177 1   
   179  175  178 1   
   180  181  182 1   
   181  181  183 1   
   182  184  185 1   
   183  184  186 1   
   184  187  188 1   
   185  187  189 1   
@<TRIPOS>SUBSTRUCTURE
     1 MOL         1 TEMP              0 ****  ****    0 ROOT
