@<TRIPOS>MOLECULE
MOL
  181   177     1     0     0
SMALL
resp


@<TRIPOS>ATOM
      1 C1          2.4580   -1.0310    5.1690 c3        1 MOL     -0.388455
      2 C2          3.6470   -0.6490    4.2620 c         1 MOL      0.665483
      3 O1          3.5360    0.1800    3.3990 o         1 MOL     -0.550195
      4 H1          2.0780   -2.0090    4.8750 hc        1 MOL      0.088066
      5 H2          2.7880   -1.0660    6.2070 hc        1 MOL      0.088066
      6 H3          1.6670   -0.2880    5.0630 hc        1 MOL      0.088066
      7 N1          4.7620   -1.2510    4.5680 n         1 MOL     -0.468379
      8 C3          5.9370   -1.0250    3.7580 c3        1 MOL      0.049218
      9 C4          5.8060   -1.5110    2.3170 c         1 MOL      0.587606
     10 O2          6.3310   -0.9070    1.3580 o         1 MOL     -0.588866
     11 C5          7.0380   -1.7660    4.4900 c3        1 MOL     -0.206417
     12 C6          8.3600   -1.5040    3.7800 c         1 MOL      0.740667
     13 O3          8.9160   -0.3760    3.9280 o         1 MOL     -0.721886
     14 O4          8.9690   -2.4600    3.1960 o         1 MOL     -0.721886
     15 H4          4.7220   -1.8870    5.3590 hn        1 MOL      0.281128
     16 H5          6.2530    0.0280    3.7000 h1        1 MOL      0.085486
     17 H6          6.9010   -2.8520    4.5510 hc        1 MOL      0.014059
     18 H7          7.1210   -1.4060    5.5180 hc        1 MOL      0.014059
     19 N2          5.1680   -2.6520    2.0530 n         1 MOL     -0.552732
     20 C7          4.9380   -3.3480    0.7780 c3        1 MOL      0.436427
     21 C8          4.6900   -2.3450   -0.4330 c         1 MOL      0.546621
     22 O5          3.5880   -1.7980   -0.5420 o         1 MOL     -0.624087
     23 C9          6.0330   -4.3820    0.5120 c3        1 MOL     -0.429990
     24 H8          4.6630   -3.0100    2.8490 hn        1 MOL      0.272658
     25 H9          3.9580   -3.8200    0.8290 h1        1 MOL      0.009297
     26 H10         5.9350   -5.0990    1.3230 hc        1 MOL      0.104484
     27 H11         5.8060   -4.8990   -0.4270 hc        1 MOL      0.104484
     28 H12         7.0450   -3.9740    0.4830 hc        1 MOL      0.104484
     29 N3          5.7280   -2.0570   -1.2410 n         1 MOL     -0.452048
     30 C10         5.6050   -1.0660   -2.3890 c3        1 MOL      0.179251
     31 C11         5.7510    0.4340   -2.0140 c         1 MOL      0.414640
     32 O6          6.0610    1.2960   -2.8280 o         1 MOL     -0.504665
     33 C12         6.3670   -1.5900   -3.6740 c3        1 MOL     -0.207598
     34 C13         6.3400   -3.0490   -3.8320 c         1 MOL      0.792492
     35 O7          7.3260   -3.7070   -3.4190 o         1 MOL     -0.726089
     36 O8          5.4150   -3.5810   -4.4770 o         1 MOL     -0.726089
     37 H13         6.5690   -2.6120   -1.2650 hn        1 MOL      0.292911
     38 H14         4.5780   -1.0690   -2.7480 h1        1 MOL     -0.008347
     39 H15         7.4060   -1.2560   -3.7160 hc        1 MOL      0.020695
     40 H16         5.7810   -1.2280   -4.5110 hc        1 MOL      0.020695
     41 N4          5.6470    0.7950   -0.6820 n         1 MOL     -0.180086
     42 C14         5.8890    2.1550   -0.2530 c3        1 MOL     -0.085540
     43 C15         4.8450    3.0990   -0.9170 c         1 MOL      0.582683
     44 O9          5.2250    4.1630   -1.4780 o         1 MOL     -0.568163
     45 H17         5.2150    0.1460   -0.0430 hn        1 MOL      0.276416
     46 H18         6.8460    2.5310   -0.5920 h1        1 MOL      0.061483
     47 H19         5.7350    2.1340    0.8260 h1        1 MOL      0.061483
     48 N5          3.5900    2.6290   -1.0920 n         1 MOL     -0.339889
     49 C16         2.5550    3.2640   -1.9520 c3        1 MOL     -0.350220
     50 C17         1.9720    4.6620   -1.3810 c         1 MOL      0.688962
     51 O10         1.5150    4.6860   -0.1980 o         1 MOL     -0.541438
     52 C18         1.4630    2.2030   -2.1390 c3        1 MOL     -0.147930
     53 C19         1.9280    1.0580   -2.8990 c         1 MOL      0.565057
     54 N6          2.6680    1.3010   -3.9680 n         1 MOL     -0.650903
     55 O11         1.6460   -0.0860   -2.6240 o         1 MOL     -0.530590
     56 H20         3.2390    1.8370   -0.5700 hn        1 MOL      0.288320
     57 H21         2.9500    3.4950   -2.9370 h1        1 MOL      0.137599
     58 H22         0.7120    2.7630   -2.7060 hc        1 MOL      0.138167
     59 H23         1.0100    1.9310   -1.1860 hc        1 MOL      0.138167
     60 H24         2.7130    2.1910   -4.4340 hn        1 MOL      0.309596
     61 H25         3.0880    0.5570   -4.5110 hn        1 MOL      0.309596
     62 N7          1.9300    5.6970   -2.2530 n         1 MOL     -0.432226
     63 C20         1.4420    7.0550   -1.8840 c3        1 MOL     -0.189408
     64 C21        -0.1200    7.1260   -1.7020 c         1 MOL      0.494308
     65 O12        -0.9260    6.5740   -2.5560 o         1 MOL     -0.504597
     66 H26         2.1360    5.6120   -3.2370 hn        1 MOL      0.310445
     67 H27         1.6980    7.7230   -2.7010 h1        1 MOL      0.123910
     68 H28         1.9590    7.4660   -1.0140 h1        1 MOL      0.123910
     69 N8         -0.5560    7.7260   -0.6130 n         1 MOL     -0.400323
     70 C22        -1.9510    8.0830   -0.3090 c3        1 MOL     -0.280453
     71 C23        -2.8130    6.8940    0.2620 c         1 MOL      0.466989
     72 O13        -3.9930    7.0730    0.6620 o         1 MOL     -0.543737
     73 C24        -1.9930    9.2740    0.6450 c3        1 MOL      0.554702
     74 C25        -1.4300    9.1000    1.9850 c3        1 MOL     -0.299200
     75 O14        -1.4020   10.3080   -0.0320 oh        1 MOL     -0.630898
     76 H29         0.2110    8.0840   -0.0520 hn        1 MOL      0.269577
     77 H30        -2.4050    8.3980   -1.2480 h1        1 MOL      0.177108
     78 H31        -3.0430    9.5720    0.7150 h1        1 MOL      0.011979
     79 H32        -0.4670   10.0980    0.0400 ho        1 MOL      0.358056
     80 H33        -1.0960   10.0610    2.3670 hc        1 MOL      0.062182
     81 H34        -2.2140    8.6240    2.5660 hc        1 MOL      0.062182
     82 H35        -0.6290    8.3510    2.0110 hc        1 MOL      0.062182
     83 N9         -2.1240    5.7130    0.3490 n         1 MOL     -0.147793
     84 C26        -2.6860    4.4310    0.8700 c3        1 MOL     -0.008534
     85 C27        -2.2280    3.2730    0.0620 c         1 MOL      0.409411
     86 O15        -1.4130    3.3370   -0.8960 o         1 MOL     -0.409789
     87 C28        -2.2850    4.2650    2.2960 c3        1 MOL      0.050404
     88 C29        -0.7020    4.1960    2.5970 c3        1 MOL     -0.069434
     89 C30        -2.9280    5.3530    3.1260 c3        1 MOL     -0.349411
     90 C31        -0.4650    3.5120    3.9270 c3        1 MOL     -0.129360
     91 H36        -1.2440    5.6950   -0.1420 hn        1 MOL      0.108081
     92 H37        -3.7730    4.5020    0.8290 h1        1 MOL      0.085552
     93 H38        -2.7040    3.3120    2.6180 hc        1 MOL      0.031296
     94 H39        -0.2330    5.1730    2.6540 hc        1 MOL      0.089531
     95 H40        -0.1990    3.6500    1.7960 hc        1 MOL      0.089531
     96 H41        -2.7230    5.1640    4.1800 hc        1 MOL      0.089753
     97 H42        -2.4890    6.2920    2.7860 hc        1 MOL      0.089753
     98 H43        -3.9920    5.4500    2.8830 hc        1 MOL      0.089753
     99 H44        -0.9850    4.0500    4.7160 hc        1 MOL      0.035327
    100 H45        -0.8680    2.5050    3.7980 hc        1 MOL      0.035327
    101 H46         0.6110    3.4810    4.1100 hc        1 MOL      0.035327
    102 N10        -2.8170    2.0700    0.3330 n         1 MOL     -0.483042
    103 C32        -2.3880    0.7970   -0.2060 c3        1 MOL     -0.032218
    104 C33        -3.5140   -0.2760   -0.4040 c         1 MOL      0.548368
    105 O16        -3.3190   -1.4830   -0.2640 o         1 MOL     -0.513406
    106 C34        -1.2090    0.1320    0.5160 c3        1 MOL      0.107902
    107 C35        -0.3550   -0.8380   -0.3310 c         1 MOL      0.375502
    108 O17         0.7180   -1.2770    0.1370 o         1 MOL     -0.668122
    109 O18        -0.5850   -1.1390   -1.5200 o         1 MOL     -0.668122
    110 H47        -3.6280    2.1280    0.9380 hn        1 MOL      0.265589
    111 H48        -1.9230    0.9790   -1.1740 h1        1 MOL      0.076132
    112 H49        -1.5010   -0.4580    1.3810 hc        1 MOL      0.041453
    113 H50        -0.5710    0.9140    0.9060 hc        1 MOL      0.041453
    114 N11        -4.7400    0.1670   -0.7540 n         1 MOL     -0.469077
    115 C36        -5.9240   -0.7320   -0.9200 c3        1 MOL      0.174434
    116 C37        -6.0920   -1.8400    0.1020 c         1 MOL      0.347811
    117 O19        -6.1170   -1.5910    1.3080 o         1 MOL     -0.500037
    118 C38        -7.2470    0.0340   -1.0120 c3        1 MOL     -0.211138
    119 C39        -8.4960   -0.8250   -1.3180 ca        1 MOL      0.037612
    120 C40        -8.8280   -1.2650   -2.6110 ca        1 MOL     -0.106943
    121 C41        -9.2890   -1.2130   -0.2380 ca        1 MOL     -0.106943
    122 C42        -9.9990   -1.9940   -2.7660 ca        1 MOL     -0.161265
    123 C43       -10.4840   -1.9100   -0.3970 ca        1 MOL     -0.161265
    124 C44       -10.7890   -2.3820   -1.6490 ca        1 MOL     -0.064535
    125 H51        -4.8340    1.1540   -0.9390 hn        1 MOL      0.281829
    126 H52        -5.6960   -1.1770   -1.8890 h1        1 MOL      0.032447
    127 H53        -7.1940    0.8120   -1.7690 hc        1 MOL      0.087648
    128 H54        -7.4000    0.5600   -0.0770 hc        1 MOL      0.087648
    129 H55        -8.1660   -1.0180   -3.4290 ha        1 MOL      0.113198
    130 H56        -8.9140   -0.8600    0.7110 ha        1 MOL      0.113198
    131 H57       -10.1700   -2.3720   -3.7590 ha        1 MOL      0.117663
    132 H58       -11.1270   -2.1570    0.4440 ha        1 MOL      0.117663
    133 H59       -11.6940   -2.9610   -1.7860 ha        1 MOL      0.091768
    134 N12        -6.1930   -3.1150   -0.3250 n         1 MOL     -0.105384
    135 C45        -6.3860   -4.3110    0.5030 c3        1 MOL     -0.082252
    136 C46        -5.2770   -4.4440    1.5620 c         1 MOL      0.283111
    137 O20        -5.4640   -5.2820    2.4430 o         1 MOL     -0.534950
    138 C47        -6.4510   -5.4600   -0.5020 c3        1 MOL      0.158768
    139 C48        -6.9690   -4.8360   -1.8050 c3        1 MOL     -0.264283
    140 C49        -6.3500   -3.4470   -1.7500 c3        1 MOL      0.320693
    141 H60        -7.3540   -4.2470    0.9790 h1        1 MOL      0.107106
    142 H61        -5.4570   -5.9070   -0.5460 hc        1 MOL     -0.003102
    143 H62        -7.1120   -6.2650   -0.1620 hc        1 MOL     -0.003102
    144 H63        -6.6550   -5.3850   -2.6950 hc        1 MOL      0.057279
    145 H64        -8.0490   -4.8100   -1.6960 hc        1 MOL      0.057279
    146 H65        -5.3940   -3.5180   -2.2680 h1        1 MOL     -0.047700
    147 H66        -6.9510   -2.8060   -2.3880 h1        1 MOL     -0.047700
    148 N13        -4.1140   -3.8030    1.5080 n         1 MOL      0.109874
    149 C50        -3.1420   -3.8570    2.6230 c3        1 MOL     -0.240871
    150 C51        -3.2330   -2.6490    3.5930 c         1 MOL      0.410266
    151 O21        -2.6430   -2.6320    4.6840 o         1 MOL     -0.544419
    152 C52        -1.7610   -3.8990    2.1110 c3        1 MOL      0.077989
    153 C53        -1.4370   -5.0440    1.1940 c3        1 MOL     -0.185277
    154 C54         0.0210   -4.8760    0.7990 c         1 MOL      0.572622
    155 O22         0.3860   -4.0070   -0.0620 o         1 MOL     -0.670128
    156 O23         0.9040   -5.3900    1.5440 o         1 MOL     -0.670128
    157 H67        -3.9020   -3.1950    0.7260 hn        1 MOL      0.067300
    158 H68        -3.3290   -4.7660    3.1840 h1        1 MOL      0.149510
    159 H69        -1.0280   -3.8710    2.9070 hc        1 MOL      0.097505
    160 H70        -1.5040   -3.0160    1.5280 hc        1 MOL      0.097505
    161 H71        -2.0380   -5.0300    0.2870 hc        1 MOL      0.002757
    162 H72        -1.5990   -6.0260    1.6380 hc        1 MOL      0.002757
    163 N14        -3.9700   -1.5890    3.2780 n         1 MOL     -0.048715
    164 C55        -4.3700   -0.6600    4.3400 c3        1 MOL     -0.464251
    165 H73        -3.4800   -0.2760    4.8410 h1        1 MOL      0.150263
    166 H74        -4.9280    0.1700    3.9070 h1        1 MOL      0.150263
    167 H75        -4.9960   -1.1810    5.0630 h1        1 MOL      0.150263
    168 H76        -4.5390   -1.5640    2.4490 hn        1 MOL      0.158735
    169 Ca1         1.4180   -2.6370   -1.9810 Ca        1 MOL      1.739482
    170 O24         0.7020   -4.9950   -2.9520 oh        1 MOL     -0.819143
    171 H77         0.7220   -5.6570   -3.6490 ho        1 MOL      0.393351
    172 H78         0.0590   -5.3130   -2.3260 ho        1 MOL      0.393351
    173 O25         2.9470   -2.9780   -4.3750 oh        1 MOL     -0.819143
    174 H79         3.8660   -3.2410   -4.4510 ho        1 MOL      0.393351
    175 H80         2.7000   -2.7250   -5.2570 ho        1 MOL      0.393351
    176 O26        -0.0050   -2.4110   -4.0850 oh        1 MOL     -0.819143
    177 H81        -0.4070   -1.7780   -4.6830 ho        1 MOL      0.393351
    178 H82        -0.4390   -3.2370   -4.2960 ho        1 MOL      0.393351
    179 O27         3.1820   -4.8230   -1.4700 oh        1 MOL     -0.819143
    180 H83         3.1020   -5.2770   -0.6340 ho        1 MOL      0.393351
    181 H84         3.0620   -5.5130   -2.1280 ho        1 MOL      0.393351
@<TRIPOS>BOND
     1    1    2 1   
     2    1    4 1   
     3    1    5 1   
     4    1    6 1   
     5    2    3 2   
     6    2    7 1   
     7    7    8 1   
     8    7   15 1   
     9    8    9 1   
    10    8   11 1   
    11    8   16 1   
    12    9   10 2   
    13    9   19 1   
    14   11   12 1   
    15   11   17 1   
    16   11   18 1   
    17   12   13 1   
    18   12   14 1   
    19   19   20 1   
    20   19   24 1   
    21   20   21 1   
    22   20   23 1   
    23   20   25 1   
    24   21   22 2   
    25   21   29 1   
    26   23   26 1   
    27   23   27 1   
    28   23   28 1   
    29   29   30 1   
    30   29   37 1   
    31   30   31 1   
    32   30   33 1   
    33   30   38 1   
    34   31   32 2   
    35   31   41 1   
    36   33   34 1   
    37   33   39 1   
    38   33   40 1   
    39   34   35 1   
    40   34   36 1   
    41   41   42 1   
    42   41   45 1   
    43   42   43 1   
    44   42   46 1   
    45   42   47 1   
    46   43   44 2   
    47   43   48 1   
    48   48   49 1   
    49   48   56 1   
    50   49   50 1   
    51   49   52 1   
    52   49   57 1   
    53   50   51 2   
    54   50   62 1   
    55   52   53 1   
    56   52   58 1   
    57   52   59 1   
    58   53   54 1   
    59   53   55 2   
    60   54   60 1   
    61   54   61 1   
    62   62   63 1   
    63   62   66 1   
    64   63   64 1   
    65   63   67 1   
    66   63   68 1   
    67   64   65 2   
    68   64   69 1   
    69   69   70 1   
    70   69   76 1   
    71   70   71 1   
    72   70   73 1   
    73   70   77 1   
    74   71   72 2   
    75   71   83 1   
    76   73   74 1   
    77   73   75 1   
    78   73   78 1   
    79   74   80 1   
    80   74   81 1   
    81   74   82 1   
    82   75   79 1   
    83   83   84 1   
    84   83   91 1   
    85   84   85 1   
    86   84   87 1   
    87   84   92 1   
    88   85   86 2   
    89   85  102 1   
    90   87   88 1   
    91   87   89 1   
    92   87   93 1   
    93   88   90 1   
    94   88   94 1   
    95   88   95 1   
    96   89   96 1   
    97   89   97 1   
    98   89   98 1   
    99   90   99 1   
   100   90  100 1   
   101   90  101 1   
   102  102  103 1   
   103  102  110 1   
   104  103  104 1   
   105  103  106 1   
   106  103  111 1   
   107  104  105 2   
   108  104  114 1   
   109  106  107 1   
   110  106  112 1   
   111  106  113 1   
   112  107  108 1   
   113  107  109 1   
   114  114  115 1   
   115  114  125 1   
   116  115  116 1   
   117  115  118 1   
   118  115  126 1   
   119  116  117 2   
   120  116  134 1   
   121  118  119 1   
   122  118  127 1   
   123  118  128 1   
   124  119  120 ar  
   125  119  121 ar  
   126  120  122 ar  
   127  120  129 1   
   128  121  123 ar  
   129  121  130 1   
   130  122  124 ar  
   131  122  131 1   
   132  123  124 ar  
   133  123  132 1   
   134  124  133 1   
   135  134  135 1   
   136  134  140 1   
   137  135  136 1   
   138  135  138 1   
   139  135  141 1   
   140  136  137 2   
   141  136  148 1   
   142  138  139 1   
   143  138  142 1   
   144  138  143 1   
   145  139  140 1   
   146  139  144 1   
   147  139  145 1   
   148  140  146 1   
   149  140  147 1   
   150  148  149 1   
   151  148  157 1   
   152  149  150 1   
   153  149  152 1   
   154  149  158 1   
   155  150  151 2   
   156  150  163 1   
   157  152  153 1   
   158  152  159 1   
   159  152  160 1   
   160  153  154 1   
   161  153  161 1   
   162  153  162 1   
   163  154  155 1   
   164  154  156 1   
   165  163  164 1   
   166  163  168 1   
   167  164  165 1   
   168  164  166 1   
   169  164  167 1   
   170  170  171 1   
   171  170  172 1   
   172  173  174 1   
   173  173  175 1   
   174  176  177 1   
   175  176  178 1   
   176  179  180 1   
   177  179  181 1   
@<TRIPOS>SUBSTRUCTURE
     1 MOL         1 TEMP              0 ****  ****    0 ROOT
