@<TRIPOS>MOLECULE
MOL
  189   185     1     0     0
SMALL
resp


@<TRIPOS>ATOM
      1 C1          4.0320    4.3340   -3.1500 c3        1 MOL     -0.508038
      2 C2          4.7320    3.4870   -2.1250 c         1 MOL      0.679994
      3 O1          4.1840    3.2370   -1.0030 o         1 MOL     -0.511287
      4 H1          2.9960    4.0090   -3.2420 hc        1 MOL      0.130917
      5 H2          4.0580    5.3780   -2.8380 hc        1 MOL      0.130917
      6 H3          4.5330    4.2290   -4.1120 hc        1 MOL      0.130917
      7 N1          5.9750    3.1350   -2.4050 n         1 MOL     -0.430451
      8 C3          6.8540    2.0850   -1.8630 c3        1 MOL      0.057882
      9 C4          6.1070    0.7350   -1.5430 c         1 MOL      0.417441
     10 O2          5.7230    0.4310   -0.4550 o         1 MOL     -0.504823
     11 C5          7.6750    2.6140   -0.6640 c3        1 MOL     -0.201498
     12 C6          6.8520    3.2850    0.4940 c         1 MOL      0.747285
     13 O3          6.2950    2.5160    1.2710 o         1 MOL     -0.718708
     14 O4          6.7090    4.5320    0.3570 o         1 MOL     -0.718708
     15 H4          6.2520    3.2780   -3.3660 hn        1 MOL      0.257509
     16 H5          7.5070    1.8760   -2.7130 h1        1 MOL      0.062105
     17 H6          8.4380    3.3400   -0.9470 hc        1 MOL      0.039181
     18 H7          8.1640    1.8320   -0.0880 hc        1 MOL      0.039181
     19 N2          5.9550   -0.0830   -2.6060 n         1 MOL     -0.483077
     20 C7          5.1580   -1.3450   -2.7280 c3        1 MOL      0.191398
     21 C8          5.7880   -2.5650   -2.0120 c         1 MOL      0.349994
     22 O5          6.0230   -3.5860   -2.5950 o         1 MOL     -0.545469
     23 C9          3.6590   -1.1900   -2.4650 c3        1 MOL      0.032719
     24 C10         2.8150   -2.4390   -2.7950 c3        1 MOL      0.059320
     25 C11         3.0570   -0.0370   -3.1740 c3        1 MOL     -0.176187
     26 C12         2.8540   -2.9950   -4.1920 c3        1 MOL     -0.294456
     27 H8          6.4880    0.2170   -3.4040 hn        1 MOL      0.275979
     28 H9          5.1630   -1.6440   -3.7740 h1        1 MOL      0.037660
     29 H10         3.5890   -0.9590   -1.4110 hc        1 MOL     -0.078690
     30 H11         1.7850   -2.2260   -2.5260 hc        1 MOL      0.061562
     31 H12         3.0880   -3.2680   -2.1320 hc        1 MOL      0.061562
     32 H13         3.3060    0.8670   -2.6190 hc        1 MOL      0.020173
     33 H14         3.4150    0.1420   -4.1830 hc        1 MOL      0.020173
     34 H15         1.9640   -0.0190   -3.1280 hc        1 MOL      0.020173
     35 H16         2.3030   -3.9290   -4.1710 hc        1 MOL      0.058057
     36 H17         2.3740   -2.2920   -4.8790 hc        1 MOL      0.058057
     37 H18         3.8340   -3.2500   -4.5780 hc        1 MOL      0.058057
     38 N3          6.2580   -2.3860   -0.7540 n         1 MOL     -0.033914
     39 C13         7.1310   -3.2130   -0.0140 c3        1 MOL      0.011918
     40 C14         6.5200   -4.4370    0.6290 c         1 MOL      0.507196
     41 O6          7.2870   -5.3940    0.8180 o         1 MOL     -0.592870
     42 C15         7.9150   -2.3980    1.0090 c3        1 MOL     -0.060516
     43 C16         8.7810   -1.3060    0.3320 c         1 MOL      0.695937
     44 O7          9.2570   -0.4560    1.1170 o         1 MOL     -0.714430
     45 O8          9.0830   -1.4620   -0.8870 o         1 MOL     -0.714430
     46 H19         6.1130   -1.4810   -0.3190 hn        1 MOL      0.147426
     47 H20         7.8970   -3.4620   -0.7420 h1        1 MOL      0.055578
     48 H21         8.5720   -3.1310    1.4910 hc        1 MOL      0.000654
     49 H22         7.2850   -1.9630    1.7770 hc        1 MOL      0.000654
     50 N4          5.2110   -4.6850    0.8620 n         1 MOL     -0.506122
     51 C17         4.0980   -3.7190    1.0270 c3        1 MOL      0.055348
     52 C18         2.7830   -4.3420    1.2960 c         1 MOL      0.461842
     53 O9          2.5300   -5.5060    0.8930 o         1 MOL     -0.579162
     54 H23         4.9960   -5.6100    1.2150 hn        1 MOL      0.298288
     55 H24         3.8690   -3.2590    0.0610 h1        1 MOL      0.083180
     56 H25         4.3540   -2.9010    1.7030 h1        1 MOL      0.083180
     57 N5          1.8540   -3.6940    2.0060 n         1 MOL     -0.361213
     58 C19         1.8490   -2.4020    2.6590 c3        1 MOL      0.146913
     59 C20         1.9890   -1.2480    1.6930 c         1 MOL      0.527373
     60 O10         3.1200   -0.8860    1.4730 o         1 MOL     -0.670564
     61 C21         2.7280   -2.4010    3.9560 c3        1 MOL     -0.328576
     62 C22         2.6690   -1.0880    4.6180 c         1 MOL      0.809235
     63 O11         1.5840   -0.4110    4.6150 o         1 MOL     -0.716946
     64 O12         3.6740   -0.7030    5.2730 o         1 MOL     -0.716946
     65 H26         1.1210   -4.3320    2.2670 hn        1 MOL      0.248879
     66 H27         0.7990   -2.4460    2.9690 h1        1 MOL     -0.004170
     67 H28         3.7700   -2.6510    3.7510 hc        1 MOL      0.077461
     68 H29         2.4220   -3.2000    4.6330 hc        1 MOL      0.077461
     69 N6          0.9280   -0.6240    1.1620 n         1 MOL     -0.318477
     70 C23        -0.4660   -0.9900    1.1200 c3        1 MOL     -0.158116
     71 C24        -0.6250   -2.3400    0.4300 c         1 MOL      0.437065
     72 O13         0.2710   -2.7420   -0.3990 o         1 MOL     -0.504724
     73 H30         1.1590    0.0730    0.4690 hn        1 MOL      0.307215
     74 H31        -1.0850   -0.2400    0.6340 h1        1 MOL      0.105183
     75 H32        -0.7270   -1.0090    2.1770 h1        1 MOL      0.105183
     76 N7         -1.7070   -3.0770    0.8310 n         1 MOL     -0.316169
     77 C25        -2.0430   -4.3810    0.2890 c3        1 MOL      0.180872
     78 C26        -2.6990   -4.2250   -1.0780 c         1 MOL      0.328891
     79 O14        -2.7680   -5.1840   -1.8650 o         1 MOL     -0.532375
     80 C27        -2.8320   -5.2350    1.2540 c3        1 MOL     -0.321600
     81 C28        -4.0710   -4.5510    1.9080 c3        1 MOL     -0.111731
     82 C29        -5.1780   -4.3070    0.9430 c         1 MOL      0.386980
     83 N8         -5.8060   -5.3870    0.5440 n         1 MOL     -0.569626
     84 O15        -5.3570   -3.1970    0.5460 o         1 MOL     -0.448927
     85 H33        -2.1160   -2.7890    1.7090 hn        1 MOL      0.252179
     86 H34        -1.0730   -4.8430    0.1400 h1        1 MOL      0.082916
     87 H35        -2.1670   -5.5100    2.0710 hc        1 MOL      0.119313
     88 H36        -3.2130   -6.1150    0.7210 hc        1 MOL      0.119313
     89 H37        -3.8510   -3.5250    2.2070 hc        1 MOL      0.058772
     90 H38        -4.5020   -5.0950    2.7550 hc        1 MOL      0.058772
     91 H39        -5.5590   -6.2260    1.0480 hn        1 MOL      0.309053
     92 H40        -6.7260   -5.2520    0.1400 hn        1 MOL      0.309053
     93 N9         -3.1680   -3.0350   -1.4610 n         1 MOL     -0.070671
     94 C30        -3.6670   -2.6730   -2.8560 c3        1 MOL     -0.091926
     95 C31        -5.0560   -2.0710   -3.0260 c         1 MOL      0.339024
     96 O16        -5.4410   -1.8230   -4.1770 o         1 MOL     -0.511801
     97 C32        -2.5870   -1.8260   -3.5550 c3        1 MOL      0.097028
     98 C33        -1.2000   -2.4630   -3.6120 c3        1 MOL     -0.097942
     99 C34        -2.5420   -0.3880   -3.0020 c3        1 MOL     -0.097942
    100 H41        -3.1760   -2.2970   -0.7720 hn        1 MOL      0.094287
    101 H42        -3.7620   -3.6020   -3.4100 h1        1 MOL      0.120285
    102 H43        -2.8790   -1.7250   -4.6000 hc        1 MOL      0.011170
    103 H44        -0.4330   -1.8510   -4.1000 hc        1 MOL      0.023801
    104 H45        -0.9140   -2.6120   -2.5740 hc        1 MOL      0.023801
    105 H46        -1.2680   -3.4050   -4.1620 hc        1 MOL      0.023801
    106 H47        -2.0680   -0.3040   -2.0220 hc        1 MOL      0.023801
    107 H48        -2.2210    0.4150   -3.6670 hc        1 MOL      0.023801
    108 H49        -3.5820   -0.1110   -2.8110 hc        1 MOL      0.023801
    109 N10        -5.7840   -1.8830   -1.9160 n         1 MOL     -0.129601
    110 C35        -7.1530   -1.2430   -2.0280 c3        1 MOL     -0.019240
    111 C36        -7.1320    0.2660   -1.5870 c         1 MOL      0.628128
    112 O17        -8.1100    0.9530   -1.8870 o         1 MOL     -0.577633
    113 C37        -8.1480   -1.8970   -1.0190 c3        1 MOL     -0.017353
    114 C38        -8.4830   -3.4590   -1.2670 c         1 MOL      0.617765
    115 N11        -8.9860   -3.7640   -2.4050 n         1 MOL     -0.770389
    116 O18        -8.2300   -4.3710   -0.4830 o         1 MOL     -0.560531
    117 H50        -5.4610   -2.3070   -1.0610 hn        1 MOL      0.189620
    118 H51        -7.5140   -1.3160   -3.0540 h1        1 MOL      0.054785
    119 H52        -9.1020   -1.4110   -1.2220 hc        1 MOL     -0.009839
    120 H53        -7.8820   -1.7830    0.0260 hc        1 MOL     -0.009839
    121 H54        -9.1470   -3.0640   -3.1230 hn        1 MOL      0.371146
    122 H55        -9.1630   -4.7410   -2.5970 hn        1 MOL      0.371146
    123 N12        -6.1330    0.7780   -0.8590 n         1 MOL     -0.682213
    124 C39        -6.0540    2.1300   -0.2500 c3        1 MOL      0.632480
    125 C40        -4.7300    2.9080   -0.2950 c         1 MOL      0.231925
    126 O19        -3.6930    2.2870   -0.4820 o         1 MOL     -0.451070
    127 C41        -6.6890    2.0430    1.2250 c3        1 MOL     -0.199335
    128 C42        -6.2220    0.9240    2.0870 ca        1 MOL      0.306541
    129 C43        -7.0790   -0.1790    2.3170 ca        1 MOL     -0.414621
    130 C44        -4.9450    0.9560    2.6730 ca        1 MOL     -0.414621
    131 C45        -6.6310   -1.2110    3.1690 ca        1 MOL     -0.069787
    132 C46        -4.4610   -0.0570    3.4570 ca        1 MOL     -0.069787
    133 C47        -5.3620   -1.0790    3.8410 ca        1 MOL      0.186785
    134 O20        -4.8560   -2.0270    4.6700 oh        1 MOL     -0.425426
    135 H56        -5.4580    0.0660   -0.6010 hn        1 MOL      0.288931
    136 H57        -6.7080    2.8220   -0.7680 h1        1 MOL     -0.068900
    137 H58        -7.7450    1.8640    1.0410 hc        1 MOL      0.018020
    138 H59        -6.5200    3.0110    1.6920 hc        1 MOL      0.018020
    139 H60        -8.0090   -0.1670    1.7760 ha        1 MOL      0.218651
    140 H61        -4.2970    1.8140    2.5630 ha        1 MOL      0.218651
    141 H62        -7.2870   -2.0420    3.3760 ha        1 MOL      0.121008
    142 H63        -3.4810    0.0230    3.9010 ha        1 MOL      0.121008
    143 H64        -5.4550   -2.7360    4.9080 ho        1 MOL      0.321512
    144 N13        -4.8190    4.2290   -0.0050 n         1 MOL     -0.442456
    145 C48        -3.7770    5.1710    0.4910 c3        1 MOL     -0.066133
    146 C49        -2.4550    5.3340   -0.2930 c         1 MOL      0.365596
    147 O21        -1.9070    6.4350   -0.3410 o         1 MOL     -0.503859
    148 C50        -3.4430    4.8390    1.9800 c3        1 MOL      0.049888
    149 C51        -3.0410    5.9490    2.9340 c3        1 MOL     -0.503123
    150 C52        -3.2000    5.6560    4.4260 c         1 MOL      0.788484
    151 O22        -2.1910    5.7970    5.2010 o         1 MOL     -0.738747
    152 O23        -4.3360    5.2680    4.8410 o         1 MOL     -0.738747
    153 H65        -5.7700    4.5510    0.0930 hn        1 MOL      0.291835
    154 H66        -4.2370    6.1650    0.4810 h1        1 MOL      0.111804
    155 H67        -2.6820    4.0580    2.0270 hc        1 MOL      0.092352
    156 H68        -4.2600    4.2460    2.4070 hc        1 MOL      0.092352
    157 H69        -3.5830    6.8400    2.6100 hc        1 MOL      0.110769
    158 H70        -2.0060    6.1600    2.6620 hc        1 MOL      0.110769
    159 N14        -1.8750    4.2960   -0.9980 n         1 MOL     -0.113937
    160 C53        -0.7660    4.4250   -1.9150 c3        1 MOL     -0.200545
    161 C54        -1.0940    5.3140   -3.0530 c         1 MOL      0.474440
    162 O24        -0.2110    5.7630   -3.8650 o         1 MOL     -0.546695
    163 C55        -0.3670    3.0650   -2.4230 c3        1 MOL      0.073761
    164 C56        -0.2370    1.7950   -1.5480 c3        1 MOL     -0.021896
    165 C57         0.7140    1.9620   -0.3540 c         1 MOL      0.654404
    166 O25         0.2290    2.3450    0.7440 o         1 MOL     -0.669828
    167 O26         1.9090    1.5250   -0.4310 o         1 MOL     -0.669828
    168 H71        -2.2820    3.3770   -0.9640 hn        1 MOL      0.148173
    169 H72         0.0040    4.8840   -1.2930 h1        1 MOL      0.163102
    170 H73         0.6060    3.2180   -2.8910 hc        1 MOL     -0.020407
    171 H74        -1.1400    2.8650   -3.1560 hc        1 MOL     -0.020407
    172 H75         0.1940    1.0040   -2.1490 hc        1 MOL      0.028105
    173 H76        -1.2440    1.5030   -1.2300 hc        1 MOL      0.028105
    174 N15        -2.3980    5.5220   -3.1630 n         1 MOL     -0.144315
    175 C58        -2.9790    6.3350   -4.1410 c3        1 MOL     -0.259289
    176 H77        -4.0290    6.0670   -4.2600 h1        1 MOL      0.089856
    177 H78        -2.9040    7.3790   -3.8390 h1        1 MOL      0.089856
    178 H79        -2.4590    6.1930   -5.0890 h1        1 MOL      0.089856
    179 H80        -2.9640    5.0740   -2.4630 hn        1 MOL      0.225213
    180 Ca1         3.9250    1.6370    1.1560 Ca        1 MOL      1.790067
    181 O27         1.8000    1.8210    2.7900 oh        1 MOL     -0.912622
    182 H81         1.0610    1.9560    2.1970 ho        1 MOL      0.429089
    183 H82         1.4780    1.2060    3.4490 ho        1 MOL      0.429089
    184 O28         3.6280    4.4190    1.7460 oh        1 MOL     -0.912622
    185 H83         2.8070    4.8400    1.4850 ho        1 MOL      0.429089
    186 H84         4.0410    5.0620    2.3300 ho        1 MOL      0.429089
    187 O29         4.9050    0.8440    3.4910 oh        1 MOL     -0.912622
    188 H85         5.8410    0.7730    3.6890 ho        1 MOL      0.429089
    189 H86         4.4780    0.4190    4.2400 ho        1 MOL      0.429089
@<TRIPOS>BOND
     1    1    2 1   
     2    1    4 1   
     3    1    5 1   
     4    1    6 1   
     5    2    3 2   
     6    2    7 1   
     7    7    8 1   
     8    7   15 1   
     9    8    9 1   
    10    8   11 1   
    11    8   16 1   
    12    9   10 2   
    13    9   19 1   
    14   11   12 1   
    15   11   17 1   
    16   11   18 1   
    17   12   13 1   
    18   12   14 1   
    19   19   20 1   
    20   19   27 1   
    21   20   21 1   
    22   20   23 1   
    23   20   28 1   
    24   21   22 2   
    25   21   38 1   
    26   23   24 1   
    27   23   25 1   
    28   23   29 1   
    29   24   26 1   
    30   24   30 1   
    31   24   31 1   
    32   25   32 1   
    33   25   33 1   
    34   25   34 1   
    35   26   35 1   
    36   26   36 1   
    37   26   37 1   
    38   38   39 1   
    39   38   46 1   
    40   39   40 1   
    41   39   42 1   
    42   39   47 1   
    43   40   41 2   
    44   40   50 1   
    45   42   43 1   
    46   42   48 1   
    47   42   49 1   
    48   43   44 1   
    49   43   45 1   
    50   50   51 1   
    51   50   54 1   
    52   51   52 1   
    53   51   55 1   
    54   51   56 1   
    55   52   53 2   
    56   52   57 1   
    57   57   58 1   
    58   57   65 1   
    59   58   59 1   
    60   58   61 1   
    61   58   66 1   
    62   59   60 2   
    63   59   69 1   
    64   61   62 1   
    65   61   67 1   
    66   61   68 1   
    67   62   63 1   
    68   62   64 1   
    69   69   70 1   
    70   69   73 1   
    71   70   71 1   
    72   70   74 1   
    73   70   75 1   
    74   71   72 2   
    75   71   76 1   
    76   76   77 1   
    77   76   85 1   
    78   77   78 1   
    79   77   80 1   
    80   77   86 1   
    81   78   79 2   
    82   78   93 1   
    83   80   81 1   
    84   80   87 1   
    85   80   88 1   
    86   81   82 1   
    87   81   89 1   
    88   81   90 1   
    89   82   83 1   
    90   82   84 2   
    91   83   91 1   
    92   83   92 1   
    93   93   94 1   
    94   93  100 1   
    95   94   95 1   
    96   94   97 1   
    97   94  101 1   
    98   95   96 2   
    99   95  109 1   
   100   97   98 1   
   101   97   99 1   
   102   97  102 1   
   103   98  103 1   
   104   98  104 1   
   105   98  105 1   
   106   99  106 1   
   107   99  107 1   
   108   99  108 1   
   109  109  110 1   
   110  109  117 1   
   111  110  111 1   
   112  110  113 1   
   113  110  118 1   
   114  111  112 2   
   115  111  123 1   
   116  113  114 1   
   117  113  119 1   
   118  113  120 1   
   119  114  115 1   
   120  114  116 2   
   121  115  121 1   
   122  115  122 1   
   123  123  124 1   
   124  123  135 1   
   125  124  125 1   
   126  124  127 1   
   127  124  136 1   
   128  125  126 2   
   129  125  144 1   
   130  127  128 1   
   131  127  137 1   
   132  127  138 1   
   133  128  129 ar  
   134  128  130 ar  
   135  129  131 ar  
   136  129  139 1   
   137  130  132 ar  
   138  130  140 1   
   139  131  133 ar  
   140  131  141 1   
   141  132  133 ar  
   142  132  142 1   
   143  133  134 1   
   144  134  143 1   
   145  144  145 1   
   146  144  153 1   
   147  145  146 1   
   148  145  148 1   
   149  145  154 1   
   150  146  147 2   
   151  146  159 1   
   152  148  149 1   
   153  148  155 1   
   154  148  156 1   
   155  149  150 1   
   156  149  157 1   
   157  149  158 1   
   158  150  151 1   
   159  150  152 1   
   160  159  160 1   
   161  159  168 1   
   162  160  161 1   
   163  160  163 1   
   164  160  169 1   
   165  161  162 2   
   166  161  174 1   
   167  163  164 1   
   168  163  170 1   
   169  163  171 1   
   170  164  165 1   
   171  164  172 1   
   172  164  173 1   
   173  165  166 1   
   174  165  167 1   
   175  174  175 1   
   176  174  179 1   
   177  175  176 1   
   178  175  177 1   
   179  175  178 1   
   180  181  182 1   
   181  181  183 1   
   182  184  185 1   
   183  184  186 1   
   184  187  188 1   
   185  187  189 1   
@<TRIPOS>SUBSTRUCTURE
     1 MOL         1 TEMP              0 ****  ****    0 ROOT
