@<TRIPOS>MOLECULE
MOL
  188   182     1     0     0
SMALL
resp


@<TRIPOS>ATOM
      1 C1          1.4990    0.1230    3.3530 c3        1 MOL     -0.582300
      2 C2          2.5260    0.3830    2.2540 c         1 MOL      0.662419
      3 O1          2.2740    1.1490    1.2820 o         1 MOL     -0.533661
      4 H1          1.7760    0.6810    4.2480 hc        1 MOL      0.156335
      5 H2          0.5150    0.4460    3.0150 hc        1 MOL      0.156335
      6 H3          1.4740   -0.9420    3.5830 hc        1 MOL      0.156335
      7 N1          3.6930   -0.2150    2.4880 n         1 MOL     -0.449398
      8 C3          4.8640    0.0010    1.5580 c3        1 MOL     -0.056667
      9 C4          5.7670   -1.1880    1.1900 c         1 MOL      0.404174
     10 O2          6.6180   -1.0400    0.3330 o         1 MOL     -0.439185
     11 C5          5.6680    1.2170    2.0670 c3        1 MOL     -0.058582
     12 C6          6.3270    1.0180    3.3650 c         1 MOL      0.681752
     13 O3          6.7430    2.0750    3.8660 o         1 MOL     -0.702533
     14 O4          6.5060   -0.0910    3.9560 o         1 MOL     -0.702533
     15 H4          3.8600   -0.7100    3.3560 hn        1 MOL      0.270813
     16 H5          4.5390    0.3170    0.5720 h1        1 MOL      0.084958
     17 H6          5.0030    2.0890    2.0790 hc        1 MOL      0.056001
     18 H7          6.4790    1.4250    1.3670 hc        1 MOL      0.056001
     19 N2          5.3710   -2.4040    1.5130 n         1 MOL     -0.402601
     20 C7          6.1080   -3.5910    1.1770 c3        1 MOL      0.168621
     21 C8          6.1140   -3.6890   -0.3810 c         1 MOL      0.485821
     22 O5          7.1330   -4.0110   -1.0080 o         1 MOL     -0.519652
     23 C9          7.4610   -3.6390    1.9200 c3        1 MOL     -0.222364
     24 C10         7.1360   -4.1420    3.3470 c3        1 MOL      0.228835
     25 C11         8.4320   -4.2860    4.0920 c3        1 MOL     -0.205902
     26 C12         8.0640   -5.0740    5.4160 c3        1 MOL      0.092081
     27 N3          7.4040   -4.2140    6.4180 n4        1 MOL     -0.410633
     28 H8          4.5030   -2.4090    2.0410 hn        1 MOL      0.261637
     29 H9          5.5690   -4.4990    1.4750 h1        1 MOL      0.036238
     30 H10         7.9190   -2.6590    1.8300 hc        1 MOL      0.085499
     31 H11         8.0360   -4.4210    1.4040 hc        1 MOL      0.085499
     32 H12         6.5540   -5.0600    3.3150 hc        1 MOL     -0.051008
     33 H13         6.4970   -3.4290    3.8540 hc        1 MOL     -0.051008
     34 H14         8.8490   -3.2870    4.2200 hc        1 MOL      0.102038
     35 H15         9.0240   -5.0030    3.5320 hc        1 MOL      0.102038
     36 H16         9.0210   -5.4980    5.6870 hx        1 MOL      0.058401
     37 H17         7.3820   -5.8900    5.1980 hx        1 MOL      0.058401
     38 H18         7.4150   -4.6050    7.3440 hn        1 MOL      0.345961
     39 H19         7.7820   -3.2900    6.2660 hn        1 MOL      0.345961
     40 H20         6.4380   -4.2110    6.1090 hn        1 MOL      0.345961
     41 N4          4.9550   -3.4070   -1.0470 n         1 MOL     -0.571415
     42 C13         4.7610   -3.2340   -2.5100 c3        1 MOL      0.362307
     43 C14         4.7380   -1.7550   -2.9260 c         1 MOL      0.458838
     44 O6          4.0910   -1.3620   -3.9260 o         1 MOL     -0.575196
     45 C15         3.5130   -4.0020   -3.0200 c3        1 MOL     -0.439652
     46 C16         2.1720   -3.5430   -2.5280 c         1 MOL      0.960442
     47 O7          2.0270   -2.9460   -1.4090 o         1 MOL     -0.842159
     48 O8          1.0890   -3.6950   -3.2330 o         1 MOL     -0.842159
     49 H21         4.1950   -3.0900   -0.4800 hn        1 MOL      0.316364
     50 H22         5.6120   -3.6590   -3.0580 h1        1 MOL      0.037445
     51 H23         3.5560   -4.9800   -2.5500 hc        1 MOL      0.109517
     52 H24         3.5430   -3.9910   -4.1140 hc        1 MOL      0.109517
     53 N5          5.2780   -0.9040   -2.0620 n         1 MOL     -0.415590
     54 C17         5.2950    0.5930   -2.2720 c3        1 MOL      0.140708
     55 C18         6.4220    1.2520   -3.0840 c         1 MOL      0.520408
     56 O9          7.4180    0.6380   -3.5210 o         1 MOL     -0.533213
     57 H25         5.8550   -1.2930   -1.3370 hn        1 MOL      0.250989
     58 H26         5.2470    0.9040   -1.2210 h1        1 MOL      0.054876
     59 H27         4.3930    0.7940   -2.8460 h1        1 MOL      0.054876
     60 N6          6.4090    2.5420   -3.2880 n         1 MOL     -0.515025
     61 C19         5.2730    3.4620   -2.9460 c3        1 MOL      0.180442
     62 C20         5.2080    3.6480   -1.4410 c         1 MOL      0.374827
     63 O10         6.2480    3.9200   -0.7430 o         1 MOL     -0.501715
     64 C21         5.5920    4.8320   -3.4980 c3        1 MOL     -0.267119
     65 C22         4.4660    5.8600   -3.3250 c         1 MOL      0.675280
     66 N7          4.5920    6.8590   -2.4650 n         1 MOL     -0.773680
     67 O11         3.3980    5.8230   -3.9600 o         1 MOL     -0.579598
     68 H28         7.2230    2.9540   -3.7320 hn        1 MOL      0.328243
     69 H29         4.3560    3.0540   -3.3720 h1        1 MOL      0.038392
     70 H30         5.8550    4.7810   -4.5590 hc        1 MOL      0.100542
     71 H31         6.4940    5.1200   -2.9570 hc        1 MOL      0.100542
     72 H32         5.3510    7.0760   -1.8380 hn        1 MOL      0.370960
     73 H33         3.7170    7.3570   -2.3530 hn        1 MOL      0.370960
     74 N8          4.0120    3.6770   -0.8370 n         1 MOL     -0.388520
     75 C23         2.6850    3.4460   -1.3260 c3        1 MOL     -0.095993
     76 C24         1.6920    3.9870   -0.3140 c         1 MOL      0.763644
     77 O12         1.9410    4.9000    0.4710 o         1 MOL     -0.573977
     78 H34         4.0550    4.0530    0.0940 hn        1 MOL      0.290696
     79 H35         2.5730    2.3760   -1.5050 h1        1 MOL      0.053199
     80 H36         2.4910    4.0120   -2.2290 h1        1 MOL      0.053199
     81 N9          0.4690    3.5510   -0.3000 n         1 MOL     -0.663716
     82 C25        -0.6630    4.0430    0.4800 c3        1 MOL      0.218772
     83 C26        -1.6590    2.9260    0.8650 c         1 MOL      0.509430
     84 O13        -1.5690    1.7950    0.2700 o         1 MOL     -0.557180
     85 C27        -1.3180    5.2170   -0.2660 c3        1 MOL     -0.120802
     86 C28        -2.2700    6.0570    0.5400 ca        1 MOL     -0.043607
     87 C29        -3.4660    6.3730   -0.0930 ca        1 MOL     -0.059795
     88 C30        -2.1300    6.3800    1.9250 ca        1 MOL     -0.059795
     89 C31        -4.5060    6.9610    0.5800 ca        1 MOL     -0.328855
     90 C32        -3.1510    7.1040    2.5970 ca        1 MOL     -0.328855
     91 C33        -4.3820    7.3490    1.8710 ca        1 MOL      0.443060
     92 O14        -5.4050    7.9940    2.4880 oh        1 MOL     -0.533709
     93 H37         0.2450    2.7640   -0.8880 hn        1 MOL      0.299642
     94 H38        -0.3110    4.4220    1.4460 h1        1 MOL      0.055921
     95 H39        -1.8120    4.7170   -1.1060 hc        1 MOL      0.081775
     96 H40        -0.5410    5.8430   -0.7020 hc        1 MOL      0.081775
     97 H41        -3.6280    6.0160   -1.1040 ha        1 MOL      0.118587
     98 H42        -1.2160    6.0970    2.4280 ha        1 MOL      0.118587
     99 H43        -5.4020    7.2110    0.0290 ha        1 MOL      0.168847
    100 H44        -2.9610    7.4040    3.6130 ha        1 MOL      0.168847
    101 H45        -5.2590    8.1370    3.4250 ho        1 MOL      0.386243
    102 N10        -2.5840    3.1690    1.7600 n         1 MOL     -0.383545
    103 C34        -3.6020    2.1830    2.2160 c3        1 MOL     -0.062058
    104 C35        -4.6040    1.9250    1.0850 c         1 MOL      0.459704
    105 O15        -4.5260    2.5370    0.0240 o         1 MOL     -0.462690
    106 C36        -4.1450    2.7850    3.5060 c3        1 MOL      0.056712
    107 C37        -5.0160    4.0160    3.1820 c3        1 MOL      0.017146
    108 C38        -4.9720    1.7420    4.2440 c3        1 MOL     -0.354263
    109 C39        -5.5430    4.7500    4.4280 c3        1 MOL     -0.209762
    110 H46        -2.6310    4.1210    2.0920 hn        1 MOL      0.173017
    111 H47        -3.1660    1.2190    2.4730 h1        1 MOL      0.153878
    112 H48        -3.3050    3.1360    4.1060 hc        1 MOL      0.078783
    113 H49        -5.8670    3.8540    2.5240 hc        1 MOL      0.051258
    114 H50        -4.4260    4.7960    2.6950 hc        1 MOL      0.051258
    115 H51        -4.5570    0.7450    4.3300 hc        1 MOL      0.104526
    116 H52        -5.2690    2.0350    5.2530 hc        1 MOL      0.104526
    117 H53        -5.9440    1.5620    3.7820 hc        1 MOL      0.104526
    118 H54        -6.3110    5.4430    4.0790 hc        1 MOL      0.047967
    119 H55        -6.1090    4.1960    5.1760 hc        1 MOL      0.047967
    120 H56        -4.6740    5.2540    4.8660 hc        1 MOL      0.047967
    121 N11        -5.5760    1.0130    1.1940 n         1 MOL     -0.513823
    122 C40        -6.5420    0.7460    0.0820 c3        1 MOL      0.087361
    123 C41        -5.8560    0.0660   -1.1030 c         1 MOL      0.125948
    124 O16        -4.9310   -0.7790   -0.8660 o         1 MOL     -0.147896
    125 C42        -7.7400    0.0290    0.5960 c3        1 MOL     -0.068169
    126 O17        -7.4110   -1.2510    0.9200 oh        1 MOL     -0.353203
    127 H57        -5.6900    0.6210    2.1210 hn        1 MOL      0.335455
    128 H58        -6.9680    1.6860   -0.2670 h1        1 MOL      0.105003
    129 H59        -8.5050   -0.0320   -0.1810 h1        1 MOL      0.068502
    130 H60        -8.1180    0.5050    1.5000 h1        1 MOL      0.068502
    131 H61        -8.2250   -1.7470    0.9490 ho        1 MOL      0.378139
    132 N12        -6.2460    0.2840   -2.3560 n         1 MOL     -0.282735
    133 C43        -5.9690   -0.6280   -3.5160 c3        1 MOL      0.180869
    134 C44        -5.9940   -2.1620   -3.1030 c         1 MOL      0.394316
    135 O18        -5.1090   -2.9430   -3.3470 o         1 MOL     -0.390297
    136 C45        -4.6710   -0.1850   -4.1910 c3        1 MOL     -0.343337
    137 H62        -7.0650    0.8660   -2.4630 hn        1 MOL      0.257199
    138 H63        -6.8180   -0.4490   -4.1710 h1        1 MOL      0.038257
    139 H64        -3.8130   -0.0360   -3.5420 hc        1 MOL      0.097937
    140 H65        -4.4290   -0.9300   -4.9510 hc        1 MOL      0.097937
    141 H66        -4.8670    0.8160   -4.5840 hc        1 MOL      0.097937
    142 N13        -7.1230   -2.5780   -2.5200 n         1 MOL     -0.418129
    143 C46        -7.4280   -3.8730   -1.9200 c3        1 MOL      0.241391
    144 C47        -6.4340   -4.4200   -0.8300 c         1 MOL      0.394855
    145 O19        -6.1310   -5.5480   -0.8690 o         1 MOL     -0.435348
    146 C48        -7.6840   -4.9340   -3.0310 c3        1 MOL     -0.430830
    147 H67        -7.9140   -1.9490   -2.5060 hn        1 MOL      0.248419
    148 H68        -8.4050   -3.7560   -1.4550 h1        1 MOL      0.010286
    149 H69        -6.7380   -5.4020   -3.3410 hc        1 MOL      0.124784
    150 H70        -8.3050   -5.6970   -2.5720 hc        1 MOL      0.124784
    151 H71        -8.1070   -4.4680   -3.9220 hc        1 MOL      0.124784
    152 N14        -5.8710   -3.6240    0.1200 n         1 MOL     -0.290326
    153 C49        -4.8120   -4.0960    1.0320 c3        1 MOL     -0.037905
    154 C50        -5.2860   -4.7190    2.3670 c         1 MOL      0.327919
    155 O20        -4.6910   -5.5520    2.9880 o         1 MOL     -0.473365
    156 C51        -3.6950   -3.0350    1.2830 c3        1 MOL      0.666967
    157 C52        -2.3360   -3.5870    1.6070 c3        1 MOL     -0.387868
    158 C53        -1.6910   -4.2090    0.3730 c         1 MOL      0.864477
    159 O21        -0.7630   -3.6460   -0.1620 o         1 MOL     -0.755634
    160 O22        -2.0790   -5.3190   -0.0610 o         1 MOL     -0.755634
    161 H72        -5.9450   -2.6160   -0.0060 hn        1 MOL      0.022156
    162 H73        -4.3880   -4.9420    0.4980 h1        1 MOL      0.131451
    163 H74        -4.0380   -2.3350    2.0490 hc        1 MOL     -0.223649
    164 H75        -3.5170   -2.4360    0.4010 hc        1 MOL     -0.223649
    165 H76        -2.2500   -4.2320    2.4710 hc        1 MOL      0.030314
    166 H77        -1.6850   -2.7180    1.7780 hc        1 MOL      0.030314
    167 N15        -6.3090   -4.0270    2.8830 n         1 MOL     -0.053605
    168 C54        -6.6860   -4.1790    4.3200 c3        1 MOL     -0.247824
    169 H78        -7.4830   -3.4760    4.5620 h1        1 MOL      0.096088
    170 H79        -7.0330   -5.1960    4.5000 h1        1 MOL      0.096088
    171 H80        -5.8180   -3.9740    4.9470 h1        1 MOL      0.096088
    172 H81        -6.8090   -3.3920    2.2780 hn        1 MOL      0.044360
    173 Ca1        -0.3880   -1.9340   -2.0380 Ca        1 MOL      1.764871
    174 O23        -1.4670   -1.0410   -4.5170 oh        1 MOL     -0.857086
    175 O24        -2.2460   -0.2040   -1.4630 oh        1 MOL     -0.857086
    176 H82        -2.2000   -1.1050   -5.1420 ho        1 MOL      0.410052
    177 H83        -2.0430    0.7130   -1.2570 ho        1 MOL      0.410052
    178 H84        -0.7750   -0.6010   -5.0110 ho        1 MOL      0.410052
    179 H85        -3.1850   -0.2730   -1.3460 ho        1 MOL      0.410052
    180 O25        -2.6720   -3.0380   -2.5050 oh        1 MOL     -0.857086
    181 H86        -2.4980   -3.8090   -3.0260 ho        1 MOL      0.410052
    182 H87        -3.6120   -2.8770   -2.6060 ho        1 MOL      0.410052
    183 O26         0.3620   -0.0390   -0.3430 oh        1 MOL     -0.857086
    184 H88         1.1920    0.3090   -0.0030 ho        1 MOL      0.410052
    185 H89        -0.3090    0.4770    0.0980 ho        1 MOL      0.410052
    186 O27         1.4280   -0.1650   -3.0940 oh        1 MOL     -0.857086
    187 H90         2.2730   -0.2390   -3.5380 ho        1 MOL      0.410052
    188 H91         1.1210    0.7140   -3.3030 ho        1 MOL      0.410052
@<TRIPOS>BOND
     1    1    2 1   
     2    1    4 1   
     3    1    5 1   
     4    1    6 1   
     5    2    3 2   
     6    2    7 1   
     7    7    8 1   
     8    7   15 1   
     9    8    9 1   
    10    8   11 1   
    11    8   16 1   
    12    9   10 2   
    13    9   19 1   
    14   11   12 1   
    15   11   17 1   
    16   11   18 1   
    17   12   13 1   
    18   12   14 1   
    19   19   20 1   
    20   19   28 1   
    21   20   21 1   
    22   20   23 1   
    23   20   29 1   
    24   21   22 2   
    25   21   41 1   
    26   23   24 1   
    27   23   30 1   
    28   23   31 1   
    29   24   25 1   
    30   24   32 1   
    31   24   33 1   
    32   25   26 1   
    33   25   34 1   
    34   25   35 1   
    35   26   27 1   
    36   26   36 1   
    37   26   37 1   
    38   27   38 1   
    39   27   39 1   
    40   27   40 1   
    41   41   42 1   
    42   41   49 1   
    43   42   43 1   
    44   42   45 1   
    45   42   50 1   
    46   43   44 2   
    47   43   53 1   
    48   45   46 1   
    49   45   51 1   
    50   45   52 1   
    51   46   47 1   
    52   46   48 1   
    53   53   54 1   
    54   53   57 1   
    55   54   55 1   
    56   54   58 1   
    57   54   59 1   
    58   55   56 2   
    59   55   60 1   
    60   60   61 1   
    61   60   68 1   
    62   61   62 1   
    63   61   64 1   
    64   61   69 1   
    65   62   63 2   
    66   62   74 1   
    67   64   65 1   
    68   64   70 1   
    69   64   71 1   
    70   65   66 1   
    71   65   67 2   
    72   66   72 1   
    73   66   73 1   
    74   74   75 1   
    75   74   78 1   
    76   75   76 1   
    77   75   79 1   
    78   75   80 1   
    79   76   77 2   
    80   76   81 1   
    81   81   82 1   
    82   81   93 1   
    83   82   83 1   
    84   82   85 1   
    85   82   94 1   
    86   83   84 2   
    87   83  102 1   
    88   85   86 1   
    89   85   95 1   
    90   85   96 1   
    91   86   87 ar  
    92   86   88 ar  
    93   87   89 ar  
    94   87   97 1   
    95   88   90 ar  
    96   88   98 1   
    97   89   91 ar  
    98   89   99 1   
    99   90   91 ar  
   100   90  100 1   
   101   91   92 1   
   102   92  101 1   
   103  102  103 1   
   104  102  110 1   
   105  103  104 1   
   106  103  106 1   
   107  103  111 1   
   108  104  105 2   
   109  104  121 1   
   110  106  107 1   
   111  106  108 1   
   112  106  112 1   
   113  107  109 1   
   114  107  113 1   
   115  107  114 1   
   116  108  115 1   
   117  108  116 1   
   118  108  117 1   
   119  109  118 1   
   120  109  119 1   
   121  109  120 1   
   122  121  122 1   
   123  121  127 1   
   124  122  123 1   
   125  122  125 1   
   126  122  128 1   
   127  123  124 2   
   128  123  132 1   
   129  125  126 1   
   130  125  129 1   
   131  125  130 1   
   132  126  131 1   
   133  132  133 1   
   134  132  137 1   
   135  133  134 1   
   136  133  136 1   
   137  133  138 1   
   138  134  135 2   
   139  134  142 1   
   140  136  139 1   
   141  136  140 1   
   142  136  141 1   
   143  142  143 1   
   144  142  147 1   
   145  143  144 1   
   146  143  146 1   
   147  143  148 1   
   148  144  145 2   
   149  144  152 1   
   150  146  149 1   
   151  146  150 1   
   152  146  151 1   
   153  152  153 1   
   154  152  161 1   
   155  153  154 1   
   156  153  156 1   
   157  153  162 1   
   158  154  155 2   
   159  154  167 1   
   160  156  157 1   
   161  156  163 1   
   162  156  164 1   
   163  157  158 1   
   164  157  165 1   
   165  157  166 1   
   166  158  159 1   
   167  158  160 1   
   168  167  168 1   
   169  167  172 1   
   170  168  169 1   
   171  168  170 1   
   172  168  171 1   
   173  174  176 1   
   174  174  178 1   
   175  175  177 1   
   176  175  179 1   
   177  180  181 1   
   178  180  182 1   
   179  183  184 1   
   180  183  185 1   
   181  186  187 1   
   182  186  188 1   
@<TRIPOS>SUBSTRUCTURE
     1 MOL         1 TEMP              0 ****  ****    0 ROOT
