@<TRIPOS>MOLECULE
MOL
  181   177     1     0     0
SMALL
resp


@<TRIPOS>ATOM
      1 C1          3.7260   -2.1250    3.5890 c3        1 MOL     -0.420120
      2 C2          5.0060   -1.4000    3.0950 c         1 MOL      0.698132
      3 O1          5.1030   -0.1950    2.9430 o         1 MOL     -0.591219
      4 H1          3.9690   -2.7410    4.4550 hc        1 MOL      0.104987
      5 H2          2.9740   -1.3870    3.8690 hc        1 MOL      0.104987
      6 H3          3.3350   -2.7570    2.7920 hc        1 MOL      0.104987
      7 N1          6.0430   -2.1800    2.6990 n         1 MOL     -0.615300
      8 C3          7.3770   -1.5780    2.4790 c3        1 MOL      0.203497
      9 C4          7.4220   -1.0820    0.9990 c         1 MOL      0.661166
     10 O2          7.6370   -1.8320    0.0750 o         1 MOL     -0.582156
     11 C5          8.4120   -2.7120    2.8160 c3        1 MOL     -0.309562
     12 C6          9.8110   -2.1420    2.4900 c         1 MOL      0.774155
     13 O3         10.7270   -2.9150    2.1930 o         1 MOL     -0.731089
     14 O4         10.0720   -0.9130    2.6010 o         1 MOL     -0.731089
     15 H4          6.0260   -3.1930    2.7700 hn        1 MOL      0.304985
     16 H5          7.6130   -0.7770    3.1700 h1        1 MOL      0.034287
     17 H6          8.1950   -3.5930    2.2150 hc        1 MOL      0.040302
     18 H7          8.2840   -3.0870    3.8370 hc        1 MOL      0.040302
     19 N2          7.1090    0.1860    0.7710 n         1 MOL     -0.764060
     20 C7          7.0020    0.6680   -0.5890 c3        1 MOL      0.713982
     21 C8          5.5890    1.1340   -0.9210 c         1 MOL      0.371606
     22 O5          4.7600    1.3160   -0.0540 o         1 MOL     -0.522734
     23 C9          8.1050    1.6660   -0.8330 c3        1 MOL     -0.355976
     24 H8          6.6670    0.7900    1.4520 hn        1 MOL      0.344820
     25 H9          7.1250   -0.1950   -1.2490 h1        1 MOL     -0.068967
     26 H10         7.9680    2.0090   -1.8660 hc        1 MOL      0.063899
     27 H11         7.8590    2.4730   -0.1350 hc        1 MOL      0.063899
     28 H12         9.0860    1.2520   -0.6230 hc        1 MOL      0.063899
     29 N3          5.3730    1.2020   -2.2460 n         1 MOL     -0.484769
     30 C10         4.1100    1.5840   -2.7860 c3        1 MOL     -0.003402
     31 C11         4.2720    2.9540   -3.4600 c         1 MOL      0.718617
     32 O6          5.3410    3.3420   -3.8120 o         1 MOL     -0.541354
     33 C12         3.6770    0.5540   -3.8610 c3        1 MOL     -0.179744
     34 C13         3.8780   -0.9060   -3.6460 c         1 MOL      0.686026
     35 O7          4.7430   -1.5030   -4.2890 o         1 MOL     -0.689612
     36 O8          2.9630   -1.5170   -2.9670 o         1 MOL     -0.689612
     37 H13         6.1580    1.0450   -2.8610 hn        1 MOL      0.315409
     38 H14         3.3520    1.5810   -1.9970 h1        1 MOL      0.082303
     39 H15         4.1110    0.9700   -4.7810 hc        1 MOL      0.029208
     40 H16         2.6090    0.7510   -3.8160 hc        1 MOL      0.029208
     41 N4          3.2200    3.7880   -3.5910 n         1 MOL     -0.553641
     42 C14         3.2740    5.2000   -4.0260 c3        1 MOL     -0.148100
     43 C15         2.0740    6.0960   -3.8810 c         1 MOL      0.542554
     44 O9          2.3390    7.2910   -4.1560 o         1 MOL     -0.535739
     45 H17         2.2780    3.5310   -3.3040 hn        1 MOL      0.251176
     46 H18         3.8460    5.2730   -4.9560 h1        1 MOL      0.121497
     47 H19         3.9190    5.5640   -3.2270 h1        1 MOL      0.121497
     48 N5          0.9310    5.6500   -3.3540 n         1 MOL     -0.374081
     49 C16        -0.1800    6.5940   -3.0630 c3        1 MOL      0.001908
     50 C17        -0.1160    7.0030   -1.5020 c         1 MOL      0.457791
     51 O10        -0.5610    8.1060   -1.1430 o         1 MOL     -0.509096
     52 C18        -1.5150    5.8410   -3.3760 c3        1 MOL     -0.309647
     53 C19        -2.6770    6.7500   -3.0650 c         1 MOL      0.708035
     54 N6         -3.2310    6.4780   -1.8830 n         1 MOL     -0.781544
     55 O11        -3.2080    7.5530   -3.8200 o         1 MOL     -0.576833
     56 H20         0.7040    4.6700   -3.3660 hn        1 MOL      0.303207
     57 H21        -0.1070    7.5430   -3.6000 h1        1 MOL      0.127352
     58 H22        -1.5020    4.9490   -2.7640 hc        1 MOL      0.099202
     59 H23        -1.6820    5.6140   -4.4350 hc        1 MOL      0.099202
     60 H24        -2.6970    6.0000   -1.1710 hn        1 MOL      0.353966
     61 H25        -4.0700    6.9380   -1.5600 hn        1 MOL      0.353966
     62 N7          0.3170    6.1010   -0.6600 n         1 MOL     -0.266691
     63 C20         0.1280    6.2730    0.7890 c3        1 MOL     -0.148674
     64 C21        -1.3030    6.0510    1.2770 c         1 MOL      0.621488
     65 O12        -2.1050    5.5310    0.4710 o         1 MOL     -0.536661
     66 H26         0.8290    5.3010   -0.9900 hn        1 MOL      0.236973
     67 H27         0.4360    7.2890    1.0580 h1        1 MOL      0.098102
     68 H28         0.8270    5.6590    1.3480 h1        1 MOL      0.098102
     69 N8         -1.6680    6.2990    2.5320 n         1 MOL     -0.427499
     70 C22        -2.9780    5.9170    3.1090 c3        1 MOL     -0.201302
     71 C23        -3.2120    4.4110    3.3880 c         1 MOL      0.465179
     72 O13        -4.3860    4.0540    3.5710 o         1 MOL     -0.548800
     73 C24        -3.2630    6.6600    4.3770 c3        1 MOL      0.563339
     74 C25        -2.4280    6.1530    5.5910 c3        1 MOL     -0.517074
     75 O14        -3.0190    7.9570    4.1270 oh        1 MOL     -0.630227
     76 H29        -1.0280    6.8170    3.1210 hn        1 MOL      0.251426
     77 H30        -3.7030    6.1990    2.3510 h1        1 MOL      0.162673
     78 H31        -4.3340    6.5690    4.5850 h1        1 MOL      0.009499
     79 H32        -2.0910    8.0870    4.3300 ho        1 MOL      0.389972
     80 H33        -2.6630    6.7570    6.4650 hc        1 MOL      0.123003
     81 H34        -2.6970    5.1250    5.8430 hc        1 MOL      0.123003
     82 H35        -1.3730    6.0430    5.3350 hc        1 MOL      0.123003
     83 N9         -2.2240    3.5700    3.2760 n         1 MOL     -0.265862
     84 C26        -2.3240    2.1540    3.4060 c3        1 MOL      0.070074
     85 C27        -1.5500    1.3920    2.2620 c         1 MOL      0.550512
     86 O15        -0.4630    1.7820    1.8920 o         1 MOL     -0.495987
     87 C28        -1.8810    1.5470    4.8240 c3        1 MOL     -0.081478
     88 C29        -2.7280    1.9410    6.0990 c3        1 MOL      0.135586
     89 C30        -1.7590    0.0190    4.7620 c3        1 MOL      0.148705
     90 C31        -4.1690    1.5950    5.9050 c3        1 MOL     -0.245699
     91 H36        -1.3970    3.9460    2.8610 hn        1 MOL      0.177933
     92 H37        -3.3880    1.9570    3.3310 h1        1 MOL      0.040397
     93 H38        -0.8850    1.9700    4.9690 hc        1 MOL      0.014956
     94 H39        -2.6660    3.0070    6.2990 hc        1 MOL     -0.014877
     95 H40        -2.2560    1.4670    6.9520 hc        1 MOL     -0.014877
     96 H41        -1.4790   -0.3390    5.7500 hc        1 MOL     -0.032295
     97 H42        -2.6070   -0.5600    4.3990 hc        1 MOL     -0.032295
     98 H43        -0.9240   -0.2620    4.1240 hc        1 MOL     -0.032295
     99 H44        -4.2460    0.5090    5.9820 hc        1 MOL      0.055775
    100 H45        -4.6270    2.0890    6.7690 hc        1 MOL      0.055775
    101 H46        -4.5940    2.1120    5.0520 hc        1 MOL      0.055775
    102 N10        -2.1900    0.3330    1.7740 n         1 MOL     -0.625430
    103 C32        -1.5880   -0.5820    0.8320 c3        1 MOL      0.448167
    104 C33        -2.6760   -1.2980    0.0180 c         1 MOL      0.339825
    105 O16        -2.5990   -2.4640   -0.2870 o         1 MOL     -0.327088
    106 C34        -0.6620   -1.6310    1.5150 c3        1 MOL     -0.536929
    107 C35         0.2560   -2.3170    0.5570 c         1 MOL      0.891012
    108 O17         0.4280   -1.8450   -0.5570 o         1 MOL     -0.764656
    109 O18         0.9660   -3.2080    1.0060 o         1 MOL     -0.764656
    110 H47        -3.0110    0.0210    2.2710 hn        1 MOL      0.309320
    111 H48        -1.0200   -0.0110    0.0980 h1        1 MOL      0.026224
    112 H49        -1.1690   -2.3280    2.1790 hc        1 MOL      0.134625
    113 H50         0.1260   -1.1650    2.0990 hc        1 MOL      0.134625
    114 N11        -3.7530   -0.5600   -0.1730 n         1 MOL     -0.475839
    115 C36        -4.9100   -1.1040   -0.9820 c3        1 MOL      0.248936
    116 C37        -5.3930   -2.5270   -0.6150 c         1 MOL      0.340770
    117 O19        -5.6520   -2.8480    0.5300 o         1 MOL     -0.544711
    118 C38        -6.1420   -0.1810   -0.7150 c3        1 MOL     -0.244916
    119 C39        -7.2530   -0.4880   -1.6510 ca        1 MOL      0.156688
    120 C40        -8.4020   -1.2320   -1.3000 ca        1 MOL     -0.248327
    121 C41        -7.1480   -0.0890   -3.0320 ca        1 MOL     -0.248327
    122 C42        -9.4430   -1.6380   -2.1390 ca        1 MOL     -0.039042
    123 C43        -8.1810   -0.4290   -3.8710 ca        1 MOL     -0.039042
    124 C44        -9.2800   -1.2280   -3.4500 ca        1 MOL     -0.160618
    125 H51        -3.7750    0.3880    0.1880 hn        1 MOL      0.256846
    126 H52        -4.6890   -1.0260   -2.0560 h1        1 MOL      0.013646
    127 H53        -5.8580    0.8690   -0.7190 hc        1 MOL      0.099069
    128 H54        -6.4820   -0.3610    0.3050 hc        1 MOL      0.099069
    129 H55        -8.4320   -1.6700   -0.3110 ha        1 MOL      0.141850
    130 H56        -6.2760    0.4660   -3.3510 ha        1 MOL      0.141850
    131 H57       -10.2960   -2.2040   -1.8190 ha        1 MOL      0.101443
    132 H58        -8.1080   -0.1370   -4.9050 ha        1 MOL      0.101443
    133 H59       -10.0850   -1.4040   -4.1460 ha        1 MOL      0.094182
    134 N12        -5.3870   -3.4930   -1.5590 n         1 MOL     -0.018071
    135 C45        -5.9400   -4.8440   -1.2760 c3        1 MOL      0.007708
    136 C46        -5.0430   -5.5900   -0.2960 c         1 MOL      0.288158
    137 O20        -5.5430   -6.4630    0.4620 o         1 MOL     -0.528117
    138 C47        -5.8970   -5.4290   -2.6670 c3        1 MOL     -0.038891
    139 C48        -4.7870   -4.8180   -3.4480 c3        1 MOL     -0.093832
    140 C49        -4.7950   -3.4020   -2.8820 c3        1 MOL     -0.052936
    141 H60        -6.9960   -4.7970   -1.0360 h1        1 MOL      0.075676
    142 H61        -6.0520   -6.5130   -2.5680 hc        1 MOL      0.025036
    143 H62        -6.7940   -5.0190   -3.1520 hc        1 MOL      0.025036
    144 H63        -3.8480   -5.3070   -3.1890 hc        1 MOL      0.052035
    145 H64        -4.9580   -4.8950   -4.5200 hc        1 MOL      0.052035
    146 H65        -3.7900   -2.9760   -2.8440 h1        1 MOL      0.041610
    147 H66        -5.4240   -2.7160   -3.4490 h1        1 MOL      0.041610
    148 N13        -3.8110   -5.2620   -0.2410 n         1 MOL      0.084044
    149 C50        -2.7880   -6.1180    0.3440 c3        1 MOL     -0.378867
    150 C51        -2.8820   -6.2290    1.8340 c         1 MOL      0.550038
    151 O21        -2.7840   -7.3720    2.3260 o         1 MOL     -0.539112
    152 C52        -1.4000   -5.6280   -0.0330 c3        1 MOL      0.115249
    153 C53        -1.0680   -5.6070   -1.5120 c3        1 MOL      0.020505
    154 C54         0.4090   -5.2180   -1.7500 c         1 MOL      0.584910
    155 O22         1.2870   -5.6970   -0.9740 o         1 MOL     -0.726976
    156 O23         0.7460   -4.2330   -2.4710 o         1 MOL     -0.726976
    157 H67        -3.5350   -4.4260   -0.7230 hn        1 MOL      0.113199
    158 H68        -2.9570   -7.0810   -0.1280 h1        1 MOL      0.151092
    159 H69        -0.6820   -6.2900    0.4520 hc        1 MOL      0.018707
    160 H70        -1.3810   -4.5950    0.3220 hc        1 MOL      0.018707
    161 H71        -1.7510   -5.0450   -2.1530 hc        1 MOL     -0.025343
    162 H72        -1.2060   -6.5780   -1.9770 hc        1 MOL     -0.025343
    163 N14        -3.1330   -5.1100    2.5550 n         1 MOL     -0.255925
    164 C55        -3.2360   -5.0310    3.9790 c3        1 MOL     -0.152758
    165 H73        -2.8690   -5.9570    4.4210 h1        1 MOL      0.070853
    166 H74        -2.6390   -4.1940    4.3410 h1        1 MOL      0.070853
    167 H75        -4.2790   -4.8820    4.2600 h1        1 MOL      0.070853
    168 H76        -2.9820   -4.2020    2.1190 hn        1 MOL      0.243110
    169 Ca1         2.7020   -3.3140   -1.0600 Ca        1 MOL      1.665522
    170 O24         3.7470   -5.0490   -2.8290 oh        1 MOL     -0.794153
    171 H77         3.2750   -5.8760   -2.9270 ho        1 MOL      0.398497
    172 H78         3.8060   -4.7000   -3.7260 ho        1 MOL      0.398497
    173 O25         5.4580   -3.3380   -1.1370 oh        1 MOL     -0.794153
    174 H79         6.1750   -2.7780   -0.8420 ho        1 MOL      0.398497
    175 H80         5.8860   -4.1410   -1.4300 ho        1 MOL      0.398497
    176 O26         3.8810   -5.0240    0.6280 oh        1 MOL     -0.794153
    177 H81         3.3150   -5.4830    1.2510 ho        1 MOL      0.398497
    178 H82         4.7700   -5.1730    0.9650 ho        1 MOL      0.398497
    179 O27         3.5210   -1.2110    0.2700 oh        1 MOL     -0.794153
    180 H83         4.3730   -0.7690    0.2170 ho        1 MOL      0.398497
    181 H84         2.9160   -0.5200    0.5300 ho        1 MOL      0.398497
@<TRIPOS>BOND
     1    1    2 1   
     2    1    4 1   
     3    1    5 1   
     4    1    6 1   
     5    2    3 2   
     6    2    7 1   
     7    7    8 1   
     8    7   15 1   
     9    8    9 1   
    10    8   11 1   
    11    8   16 1   
    12    9   10 2   
    13    9   19 1   
    14   11   12 1   
    15   11   17 1   
    16   11   18 1   
    17   12   13 1   
    18   12   14 1   
    19   19   20 1   
    20   19   24 1   
    21   20   21 1   
    22   20   23 1   
    23   20   25 1   
    24   21   22 2   
    25   21   29 1   
    26   23   26 1   
    27   23   27 1   
    28   23   28 1   
    29   29   30 1   
    30   29   37 1   
    31   30   31 1   
    32   30   33 1   
    33   30   38 1   
    34   31   32 2   
    35   31   41 1   
    36   33   34 1   
    37   33   39 1   
    38   33   40 1   
    39   34   35 1   
    40   34   36 1   
    41   41   42 1   
    42   41   45 1   
    43   42   43 1   
    44   42   46 1   
    45   42   47 1   
    46   43   44 2   
    47   43   48 1   
    48   48   49 1   
    49   48   56 1   
    50   49   50 1   
    51   49   52 1   
    52   49   57 1   
    53   50   51 2   
    54   50   62 1   
    55   52   53 1   
    56   52   58 1   
    57   52   59 1   
    58   53   54 1   
    59   53   55 2   
    60   54   60 1   
    61   54   61 1   
    62   62   63 1   
    63   62   66 1   
    64   63   64 1   
    65   63   67 1   
    66   63   68 1   
    67   64   65 2   
    68   64   69 1   
    69   69   70 1   
    70   69   76 1   
    71   70   71 1   
    72   70   73 1   
    73   70   77 1   
    74   71   72 2   
    75   71   83 1   
    76   73   74 1   
    77   73   75 1   
    78   73   78 1   
    79   74   80 1   
    80   74   81 1   
    81   74   82 1   
    82   75   79 1   
    83   83   84 1   
    84   83   91 1   
    85   84   85 1   
    86   84   87 1   
    87   84   92 1   
    88   85   86 2   
    89   85  102 1   
    90   87   88 1   
    91   87   89 1   
    92   87   93 1   
    93   88   90 1   
    94   88   94 1   
    95   88   95 1   
    96   89   96 1   
    97   89   97 1   
    98   89   98 1   
    99   90   99 1   
   100   90  100 1   
   101   90  101 1   
   102  102  103 1   
   103  102  110 1   
   104  103  104 1   
   105  103  106 1   
   106  103  111 1   
   107  104  105 2   
   108  104  114 1   
   109  106  107 1   
   110  106  112 1   
   111  106  113 1   
   112  107  108 1   
   113  107  109 1   
   114  114  115 1   
   115  114  125 1   
   116  115  116 1   
   117  115  118 1   
   118  115  126 1   
   119  116  117 2   
   120  116  134 1   
   121  118  119 1   
   122  118  127 1   
   123  118  128 1   
   124  119  120 ar  
   125  119  121 ar  
   126  120  122 ar  
   127  120  129 1   
   128  121  123 ar  
   129  121  130 1   
   130  122  124 ar  
   131  122  131 1   
   132  123  124 ar  
   133  123  132 1   
   134  124  133 1   
   135  134  135 1   
   136  134  140 1   
   137  135  136 1   
   138  135  138 1   
   139  135  141 1   
   140  136  137 2   
   141  136  148 1   
   142  138  139 1   
   143  138  142 1   
   144  138  143 1   
   145  139  140 1   
   146  139  144 1   
   147  139  145 1   
   148  140  146 1   
   149  140  147 1   
   150  148  149 1   
   151  148  157 1   
   152  149  150 1   
   153  149  152 1   
   154  149  158 1   
   155  150  151 2   
   156  150  163 1   
   157  152  153 1   
   158  152  159 1   
   159  152  160 1   
   160  153  154 1   
   161  153  161 1   
   162  153  162 1   
   163  154  155 1   
   164  154  156 1   
   165  163  164 1   
   166  163  168 1   
   167  164  165 1   
   168  164  166 1   
   169  164  167 1   
   170  170  171 1   
   171  170  172 1   
   172  173  174 1   
   173  173  175 1   
   174  176  177 1   
   175  176  178 1   
   176  179  180 1   
   177  179  181 1   
@<TRIPOS>SUBSTRUCTURE
     1 MOL         1 TEMP              0 ****  ****    0 ROOT
