@<TRIPOS>MOLECULE
MOL
  192   187     1     0     0
SMALL
resp


@<TRIPOS>ATOM
      1 C1         -9.3250    0.0340   -2.5690 c3        1 MOL     -0.514304
      2 C2         -8.3120   -0.1440   -1.4700 c         1 MOL      0.775268
      3 O1         -7.1830   -0.5010   -1.8710 o         1 MOL     -0.669298
      4 H1        -10.0960    0.7300   -2.2410 hc        1 MOL      0.129234
      5 H2         -8.8320    0.4290   -3.4570 hc        1 MOL      0.129234
      6 H3         -9.7800   -0.9280   -2.8040 hc        1 MOL      0.129234
      7 N1         -8.5810    0.0010   -0.1560 n         1 MOL     -0.583134
      8 C3         -7.5180    0.0440    0.9780 c3        1 MOL     -0.031703
      9 C4         -6.7450   -1.3240    1.1880 c         1 MOL      0.480230
     10 O2         -6.3670   -1.5590    2.2970 o         1 MOL     -0.424433
     11 C5         -8.0920    0.5240    2.3470 c3        1 MOL     -0.044580
     12 C6         -9.4580   -0.0220    2.8700 c         1 MOL      0.636029
     13 O3        -10.3270   -0.3500    2.0490 o         1 MOL     -0.635108
     14 O4         -9.6030   -0.0960    4.1090 o         1 MOL     -0.635108
     15 H4         -9.4970    0.3470    0.0720 hn        1 MOL      0.285780
     16 H5         -6.7550    0.7260    0.6000 h1        1 MOL      0.118062
     17 H6         -8.2320    1.6010    2.2500 hc        1 MOL      0.037150
     18 H7         -7.3540    0.5740    3.1460 hc        1 MOL      0.037150
     19 N2         -6.5130   -2.2130    0.2310 n         1 MOL     -0.289753
     20 C7         -5.9260   -3.6180    0.3250 c3        1 MOL      0.033673
     21 C8         -4.5060   -3.5730    0.9890 c         1 MOL      0.323202
     22 O5         -4.3030   -4.1520    2.1050 o         1 MOL     -0.485068
     23 C9         -5.9450   -4.2280   -1.0690 c3        1 MOL      0.019034
     24 C10        -7.3740   -4.4480   -1.6270 c3        1 MOL     -0.018780
     25 C11        -7.3930   -5.1690   -2.9200 c3        1 MOL     -0.013864
     26 C12        -8.9070   -5.4420   -3.1660 c3        1 MOL      0.012995
     27 N3         -8.9590   -5.8410   -4.6260 n4        1 MOL     -0.213933
     28 H8         -6.8100   -1.9070   -0.6800 hn        1 MOL      0.211347
     29 H9         -6.6210   -4.2470    0.8800 h1        1 MOL      0.089250
     30 H10        -5.4020   -5.1740   -1.0500 hc        1 MOL      0.008937
     31 H11        -5.4310   -3.5950   -1.7970 hc        1 MOL      0.008937
     32 H12        -7.8270   -3.4640   -1.6780 hc        1 MOL      0.015655
     33 H13        -7.8910   -4.9690   -0.8200 hc        1 MOL      0.015655
     34 H14        -6.8480   -6.1010   -2.8120 hc        1 MOL      0.034640
     35 H15        -6.8710   -4.6800   -3.7470 hc        1 MOL      0.034640
     36 H16        -9.6530   -4.6600   -2.9800 hx        1 MOL      0.092820
     37 H17        -9.1450   -6.2760   -2.5080 hx        1 MOL      0.092820
     38 H18        -8.2410   -6.5400   -4.7810 hn        1 MOL      0.234734
     39 H19        -9.8670   -6.1750   -4.9210 hn        1 MOL      0.234734
     40 H20        -8.7920   -5.0810   -5.2620 hn        1 MOL      0.234734
     41 N4         -3.5150   -2.7720    0.5200 n         1 MOL     -0.282118
     42 C13        -3.5400   -1.7890   -0.5240 c3        1 MOL      0.018367
     43 C14        -3.8030   -0.3280    0.0070 c         1 MOL      0.058981
     44 O6         -3.8740   -0.1580    1.2010 o         1 MOL     -0.281292
     45 C15        -2.2820   -1.9070   -1.3450 c3        1 MOL     -0.314150
     46 C16        -1.1020   -1.9760   -0.4080 c         1 MOL      0.701654
     47 O7         -0.7800   -1.0280    0.3040 o         1 MOL     -0.698977
     48 O8         -0.4650   -3.0260   -0.3400 o         1 MOL     -0.698977
     49 H21        -2.6790   -2.7470    1.0840 hn        1 MOL      0.343052
     50 H22        -4.3400   -2.0480   -1.2110 h1        1 MOL      0.135346
     51 H23        -2.1870   -1.0420   -1.9990 hc        1 MOL      0.070791
     52 H24        -2.3280   -2.8150   -1.9400 hc        1 MOL      0.070791
     53 N5         -3.9280    0.6290   -0.9190 n         1 MOL     -0.241793
     54 C17        -4.2410    1.9930   -0.5680 c3        1 MOL     -0.042277
     55 C18        -3.0750    2.6030    0.2090 c         1 MOL      0.586551
     56 O9         -2.0030    2.0300    0.4160 o         1 MOL     -0.443087
     57 H25        -3.9900    0.3610   -1.8940 hn        1 MOL      0.274598
     58 H26        -5.0930    2.0470    0.1110 h1        1 MOL      0.052131
     59 H27        -4.4480    2.6040   -1.4410 h1        1 MOL      0.052131
     60 N6         -3.2350    3.8370    0.6100 n         1 MOL     -0.412859
     61 C19        -2.3090    4.7320    1.3560 c3        1 MOL      0.208383
     62 C20        -2.6640    6.2410    1.1980 c         1 MOL      0.418009
     63 O10        -3.8520    6.5400    1.1650 o         1 MOL     -0.488829
     64 C21        -2.3260    4.3960    2.8570 c3        1 MOL     -0.300821
     65 C22        -1.8370    3.0080    3.2220 c         1 MOL      0.687607
     66 O11        -0.7350    2.6750    2.8470 o         1 MOL     -0.657595
     67 O12        -2.5860    2.2340    3.8850 o         1 MOL     -0.657595
     68 H28        -4.1070    4.2640    0.3180 hn        1 MOL      0.239021
     69 H29        -1.2770    4.5180    1.0520 h1        1 MOL      0.012454
     70 H30        -3.2710    4.6640    3.3250 hc        1 MOL      0.086882
     71 H31        -1.5990    5.0190    3.3790 hc        1 MOL      0.086882
     72 N7         -1.7570    7.2650    1.3600 n         1 MOL     -0.447865
     73 C23        -0.3120    6.9890    1.5360 c3        1 MOL      0.061011
     74 C24         0.3350    6.3590    0.1970 c         1 MOL      0.488376
     75 O13        -0.2120    6.4400   -0.8730 o         1 MOL     -0.471358
     76 H32        -2.0310    8.2290    1.2720 hn        1 MOL      0.319751
     77 H33        -0.1530    6.3250    2.3830 h1        1 MOL      0.032734
     78 H34         0.2900    7.8370    1.8740 h1        1 MOL      0.032734
     79 N8          1.5450    5.9270    0.3510 n         1 MOL     -0.528501
     80 C25         2.2960    5.0280   -0.6000 c3        1 MOL      0.131586
     81 C26         1.5820    3.6880   -0.8990 c         1 MOL      0.800427
     82 O14         0.9040    3.1230   -0.0370 o         1 MOL     -0.818429
     83 C27         3.7100    4.7470   -0.1610 c3        1 MOL      0.349849
     84 C28         4.5600    6.0060    0.0340 c3        1 MOL     -0.326374
     85 O15         4.3470    3.9440   -1.1120 oh        1 MOL     -0.617700
     86 H35         1.8990    6.0480    1.2860 hn        1 MOL      0.293836
     87 H36         2.2780    5.5780   -1.5400 h1        1 MOL      0.045028
     88 H37         3.5880    4.2570    0.7990 h1        1 MOL     -0.021428
     89 H38         5.0140    3.5400   -0.5430 ho        1 MOL      0.394070
     90 H39         4.0750    6.6990    0.7320 hc        1 MOL      0.085300
     91 H40         5.5460    5.6830    0.3670 hc        1 MOL      0.085300
     92 H41         4.6690    6.4480   -0.9490 hc        1 MOL      0.085300
     93 N9          1.6440    3.2840   -2.1570 n         1 MOL     -0.684366
     94 C29         0.9930    2.1370   -2.8360 c3        1 MOL      0.093034
     95 C30         1.4640    0.7940   -2.2440 c         1 MOL      0.417862
     96 O16         1.2290    0.4670   -1.0610 o         1 MOL     -0.484923
     97 C31        -0.5460    2.3560   -2.9740 c3        1 MOL      0.152027
     98 C32        -1.0310    3.7710   -3.3530 c3        1 MOL      0.240042
     99 C33        -1.1210    1.1910   -3.8950 c3        1 MOL     -0.475519
    100 C34        -2.5050    3.8570   -3.5320 c3        1 MOL     -0.274239
    101 H42         2.3480    3.8200   -2.6340 hn        1 MOL      0.329646
    102 H43         1.3260    2.2330   -3.8720 h1        1 MOL      0.044677
    103 H44        -0.9710    2.1180   -2.0050 hc        1 MOL     -0.006465
    104 H45        -0.5840    4.0390   -4.3190 hc        1 MOL     -0.044191
    105 H46        -0.6520    4.5740   -2.7250 hc        1 MOL     -0.044191
    106 H47        -0.6610    1.0690   -4.8730 hc        1 MOL      0.116378
    107 H48        -1.1390    0.2940   -3.2760 hc        1 MOL      0.116378
    108 H49        -2.1530    1.4240   -4.1480 hc        1 MOL      0.116378
    109 H50        -3.1020    3.3470   -2.7730 hc        1 MOL      0.061092
    110 H51        -2.7310    4.9170   -3.5430 hc        1 MOL      0.061092
    111 H52        -2.7620    3.5410   -4.5470 hc        1 MOL      0.061092
    112 N10         1.9540   -0.1030   -3.1200 n         1 MOL     -0.223200
    113 C35         2.4010   -1.4770   -2.7250 c3        1 MOL     -0.080352
    114 C36         3.9720   -1.7070   -2.8670 c         1 MOL      0.583842
    115 O17         4.3790   -2.8470   -2.8990 o         1 MOL     -0.565858
    116 C37         1.6580   -2.5050   -3.5870 c3        1 MOL      0.516049
    117 C38         1.8160   -2.3710   -5.1300 c3        1 MOL     -0.343343
    118 O18         0.2970   -2.3280   -3.3680 oh        1 MOL     -0.633869
    119 H53         1.8780    0.1100   -4.1040 hn        1 MOL      0.193961
    120 H54         2.0830   -1.6890   -1.6980 h1        1 MOL      0.059197
    121 H55         1.9410   -3.4930   -3.2290 h1        1 MOL     -0.012474
    122 H56         0.0600   -2.4480   -2.4480 ho        1 MOL      0.358221
    123 H57         1.4570   -1.4030   -5.4660 hc        1 MOL      0.080063
    124 H58         2.8970   -2.4290   -5.2780 hc        1 MOL      0.080063
    125 H59         1.2880   -3.2130   -5.5800 hc        1 MOL      0.080063
    126 N11         4.7770   -0.6440   -3.0650 n         1 MOL     -0.454864
    127 C39         6.2950   -0.7150   -3.0920 c3        1 MOL      0.193470
    128 C40         6.8830   -0.9560   -1.7230 c         1 MOL      0.452840
    129 O19         7.3550   -0.0130   -1.1480 o         1 MOL     -0.534598
    130 C41         6.9310    0.5030   -3.7570 c3        1 MOL      0.394050
    131 C42         8.4010    0.4460   -4.1560 c3        1 MOL     -0.349424
    132 O20         6.2740    0.6410   -4.9730 oh        1 MOL     -0.648187
    133 H60         4.4210    0.2860   -3.2630 hn        1 MOL      0.230560
    134 H61         6.6800   -1.6210   -3.5630 h1        1 MOL      0.028230
    135 H62         6.7460    1.4190   -3.2000 h1        1 MOL     -0.006906
    136 H63         6.7240    1.3780   -5.3800 ho        1 MOL      0.390931
    137 H64         8.6220   -0.5110   -4.6390 hc        1 MOL      0.085924
    138 H65         8.5750    1.2030   -4.9280 hc        1 MOL      0.085924
    139 H66         9.0410    0.7940   -3.3420 hc        1 MOL      0.085924
    140 N12         6.7410   -2.1710   -1.1990 n         1 MOL     -0.615308
    141 C43         6.6550   -2.5740    0.2270 c3        1 MOL      0.310818
    142 C44         5.3890   -1.9490    0.9060 c         1 MOL      0.586108
    143 O21         4.8710   -0.9320    0.3870 o         1 MOL     -0.509517
    144 C45         7.8990   -2.1890    1.0240 c3        1 MOL     -0.477550
    145 C46         9.2410   -2.3930    0.3320 c3        1 MOL      0.071802
    146 C47        10.4060   -1.9750    1.2530 c3        1 MOL      0.033569
    147 C48        11.7600   -2.0850    0.6340 c3        1 MOL      0.062461
    148 N13        12.7210   -1.4830    1.5940 n4        1 MOL     -0.308580
    149 H67         6.2710   -2.7950   -1.8410 hn        1 MOL      0.326706
    150 H68         6.4560   -3.6460    0.2980 h1        1 MOL      0.035469
    151 H69         7.8860   -2.7970    1.9300 hc        1 MOL      0.125618
    152 H70         7.7820   -1.1700    1.3980 hc        1 MOL      0.125618
    153 H71         9.2990   -1.8290   -0.5930 hc        1 MOL      0.034920
    154 H72         9.4150   -3.4080   -0.0090 hc        1 MOL      0.034920
    155 H73        10.4760   -2.6310    2.1220 hc        1 MOL      0.027276
    156 H74        10.1200   -0.9970    1.6550 hc        1 MOL      0.027276
    157 H75        11.6840   -1.5460   -0.3030 hx        1 MOL      0.058221
    158 H76        12.0670   -3.0910    0.3490 hx        1 MOL      0.058221
    159 H77        13.4740   -1.1400    1.0220 hn        1 MOL      0.260437
    160 H78        12.2840   -0.6870    2.0480 hn        1 MOL      0.260437
    161 H79        13.0810   -2.1890    2.2300 hn        1 MOL      0.260437
    162 N14         4.8380   -2.5990    1.9570 n         1 MOL     -0.696305
    163 C49         3.6260   -2.1470    2.6990 c3        1 MOL      0.391824
    164 C50         2.3430   -2.2380    1.8690 c         1 MOL      0.142357
    165 O22         1.6540   -1.2520    1.7740 o         1 MOL     -0.448605
    166 C51         3.3350   -3.1250    3.9120 c3        1 MOL      0.157515
    167 C52         4.3800   -2.8750    4.9600 c3        1 MOL     -0.192922
    168 C53         3.9730   -3.7940    6.1330 c         1 MOL      0.651345
    169 O23         3.4140   -3.3120    7.1320 o         1 MOL     -0.624392
    170 O24         4.2090   -5.0510    5.9730 o         1 MOL     -0.624392
    171 H80         5.4160   -3.3020    2.3910 hn        1 MOL      0.368618
    172 H81         3.7560   -1.1030    2.9980 h1        1 MOL     -0.011550
    173 H82         3.3690   -4.1840    3.6860 hc        1 MOL      0.012496
    174 H83         2.3420   -2.7970    4.2220 hc        1 MOL      0.012496
    175 H84         4.4430   -1.8390    5.2940 hc        1 MOL     -0.014625
    176 H85         5.3210   -3.2380    4.5660 hc        1 MOL     -0.014625
    177 N15         1.9070   -3.2380    1.0990 n         1 MOL     -0.221159
    178 C54         2.4880   -4.6130    0.9890 c3        1 MOL     -0.024610
    179 H86         3.5580   -4.5720    1.1920 h1        1 MOL      0.026204
    180 H87         2.0070   -5.2700    1.7130 h1        1 MOL      0.026204
    181 H88         2.3250   -4.9980   -0.0170 h1        1 MOL      0.026204
    182 H89         1.0540   -3.0260    0.6150 hn        1 MOL      0.359743
    183 Ca1         0.3610    0.9010    1.3170 Ca        1 MOL      1.738811
    184 O25         1.8300    1.1590    3.6360 oh        1 MOL     -0.810295
    185 H90         2.7220    0.8940    3.4230 ho        1 MOL      0.384305
    186 H91         1.9210    2.0520    3.9920 ho        1 MOL      0.384305
    187 O26        -0.9960   -0.0410    3.4680 oh        1 MOL     -0.810295
    188 H92        -0.6230   -0.2310    4.3290 ho        1 MOL      0.384305
    189 H93        -1.5660    0.7140    3.6110 ho        1 MOL      0.384305
    190 O27         3.1350    1.0610    1.0580 oh        1 MOL     -0.810295
    191 H94         3.9070    1.5550    0.8160 ho        1 MOL      0.384305
    192 H95         3.3370    0.1640    0.8170 ho        1 MOL      0.384305
@<TRIPOS>BOND
     1    1    2 1   
     2    1    4 1   
     3    1    5 1   
     4    1    6 1   
     5    2    3 2   
     6    2    7 1   
     7    7    8 1   
     8    7   15 1   
     9    8    9 1   
    10    8   11 1   
    11    8   16 1   
    12    9   10 2   
    13    9   19 1   
    14   11   12 1   
    15   11   17 1   
    16   11   18 1   
    17   12   13 1   
    18   12   14 1   
    19   19   20 1   
    20   19   28 1   
    21   20   21 1   
    22   20   23 1   
    23   20   29 1   
    24   21   22 2   
    25   21   41 1   
    26   23   24 1   
    27   23   30 1   
    28   23   31 1   
    29   24   25 1   
    30   24   32 1   
    31   24   33 1   
    32   25   26 1   
    33   25   34 1   
    34   25   35 1   
    35   26   27 1   
    36   26   36 1   
    37   26   37 1   
    38   27   38 1   
    39   27   39 1   
    40   27   40 1   
    41   41   42 1   
    42   41   49 1   
    43   42   43 1   
    44   42   45 1   
    45   42   50 1   
    46   43   44 2   
    47   43   53 1   
    48   45   46 1   
    49   45   51 1   
    50   45   52 1   
    51   46   47 1   
    52   46   48 1   
    53   53   54 1   
    54   53   57 1   
    55   54   55 1   
    56   54   58 1   
    57   54   59 1   
    58   55   56 2   
    59   55   60 1   
    60   60   61 1   
    61   60   68 1   
    62   61   62 1   
    63   61   64 1   
    64   61   69 1   
    65   62   63 2   
    66   62   72 1   
    67   64   65 1   
    68   64   70 1   
    69   64   71 1   
    70   65   66 1   
    71   65   67 1   
    72   72   73 1   
    73   72   76 1   
    74   73   74 1   
    75   73   77 1   
    76   73   78 1   
    77   74   75 2   
    78   74   79 1   
    79   79   80 1   
    80   79   86 1   
    81   80   81 1   
    82   80   83 1   
    83   80   87 1   
    84   81   82 2   
    85   81   93 1   
    86   83   84 1   
    87   83   85 1   
    88   83   88 1   
    89   84   90 1   
    90   84   91 1   
    91   84   92 1   
    92   85   89 1   
    93   93   94 1   
    94   93  101 1   
    95   94   95 1   
    96   94   97 1   
    97   94  102 1   
    98   95   96 2   
    99   95  112 1   
   100   97   98 1   
   101   97   99 1   
   102   97  103 1   
   103   98  100 1   
   104   98  104 1   
   105   98  105 1   
   106   99  106 1   
   107   99  107 1   
   108   99  108 1   
   109  100  109 1   
   110  100  110 1   
   111  100  111 1   
   112  112  113 1   
   113  112  119 1   
   114  113  114 1   
   115  113  116 1   
   116  113  120 1   
   117  114  115 2   
   118  114  126 1   
   119  116  117 1   
   120  116  118 1   
   121  116  121 1   
   122  117  123 1   
   123  117  124 1   
   124  117  125 1   
   125  118  122 1   
   126  126  127 1   
   127  126  133 1   
   128  127  128 1   
   129  127  130 1   
   130  127  134 1   
   131  128  129 2   
   132  128  140 1   
   133  130  131 1   
   134  130  132 1   
   135  130  135 1   
   136  131  137 1   
   137  131  138 1   
   138  131  139 1   
   139  132  136 1   
   140  140  141 1   
   141  140  149 1   
   142  141  142 1   
   143  141  144 1   
   144  141  150 1   
   145  142  143 2   
   146  142  162 1   
   147  144  145 1   
   148  144  151 1   
   149  144  152 1   
   150  145  146 1   
   151  145  153 1   
   152  145  154 1   
   153  146  147 1   
   154  146  155 1   
   155  146  156 1   
   156  147  148 1   
   157  147  157 1   
   158  147  158 1   
   159  148  159 1   
   160  148  160 1   
   161  148  161 1   
   162  162  163 1   
   163  162  171 1   
   164  163  164 1   
   165  163  166 1   
   166  163  172 1   
   167  164  165 2   
   168  164  177 1   
   169  166  167 1   
   170  166  173 1   
   171  166  174 1   
   172  167  168 1   
   173  167  175 1   
   174  167  176 1   
   175  168  169 1   
   176  168  170 1   
   177  177  178 1   
   178  177  182 1   
   179  178  179 1   
   180  178  180 1   
   181  178  181 1   
   182  184  185 1   
   183  184  186 1   
   184  187  188 1   
   185  187  189 1   
   186  190  191 1   
   187  190  192 1   
@<TRIPOS>SUBSTRUCTURE
     1 MOL         1 TEMP              0 ****  ****    0 ROOT
