@<TRIPOS>MOLECULE
MOL
  181   177     1     0     0
SMALL
resp


@<TRIPOS>ATOM
      1 C1          9.9220    6.6600    0.7030 c3        1 MOL     -0.254051
      2 C2          8.9960    5.3780    0.8010 c         1 MOL      0.534929
      3 O1          8.0900    5.3240    1.6070 o         1 MOL     -0.536766
      4 H1          9.8640    7.2210    1.6360 hc        1 MOL      0.068914
      5 H2         10.9530    6.3520    0.5290 hc        1 MOL      0.068914
      6 H3          9.5870    7.2900   -0.1210 hc        1 MOL      0.068914
      7 N1          9.0880    4.4440   -0.1360 n         1 MOL     -0.409979
      8 C3         10.1380    4.2170   -1.1480 c3        1 MOL      0.116037
      9 C4         11.3300    3.2800   -0.7460 c         1 MOL      0.549423
     10 O2         12.4350    3.4990   -1.3100 o         1 MOL     -0.579233
     11 C5          9.4300    3.5810   -2.3320 c3        1 MOL     -0.428175
     12 C6          8.6050    2.3380   -2.0030 c         1 MOL      0.827414
     13 O3          8.6460    1.7980   -0.8900 o         1 MOL     -0.762077
     14 O4          7.6590    1.9500   -2.7270 o         1 MOL     -0.762077
     15 H4          8.4140    3.6980   -0.1610 hn        1 MOL      0.276474
     16 H5         10.5190    5.1530   -1.5370 h1        1 MOL      0.067177
     17 H6         10.1410    3.1720   -3.0550 hc        1 MOL      0.125063
     18 H7          8.8240    4.3620   -2.7860 hc        1 MOL      0.125063
     19 N2         11.1380    2.2910    0.1410 n         1 MOL     -0.519497
     20 C7         12.0700    1.2550    0.4290 c3        1 MOL      0.373877
     21 C8         11.5130   -0.1670    0.2970 c         1 MOL      0.440104
     22 O5         12.2950   -1.0480    0.4460 o         1 MOL     -0.558441
     23 C9         12.8140    1.5300    1.7580 c3        1 MOL     -0.371576
     24 H8         10.1840    2.1410    0.4230 hn        1 MOL      0.271874
     25 H9         12.8160    1.2730   -0.3610 h1        1 MOL      0.013852
     26 H10        13.4890    0.7080    2.0240 hc        1 MOL      0.094177
     27 H11        13.3030    2.4890    1.6420 hc        1 MOL      0.094177
     28 H12        12.1260    1.6360    2.6020 hc        1 MOL      0.094177
     29 N3         10.2690   -0.4340   -0.0670 n         1 MOL     -0.244284
     30 C10         9.6840   -1.7920   -0.2030 c3        1 MOL     -0.019039
     31 C11         8.6520   -1.9330   -1.3470 c         1 MOL      0.351880
     32 O6          8.2020   -0.9650   -2.0240 o         1 MOL     -0.459415
     33 C12         9.0380   -2.2910    1.1700 c3        1 MOL     -0.095266
     34 C13         8.1790   -1.2030    1.7780 c         1 MOL      0.719156
     35 O7          7.0660   -0.9170    1.1880 o         1 MOL     -0.704160
     36 O8          8.4810   -0.5790    2.7940 o         1 MOL     -0.704160
     37 H13         9.6440    0.3280   -0.2720 hn        1 MOL      0.168473
     38 H14        10.4640   -2.5470   -0.3200 h1        1 MOL      0.075917
     39 H15         9.8290   -2.5600    1.8660 hc        1 MOL      0.023891
     40 H16         8.4540   -3.2130    1.1110 hc        1 MOL      0.023891
     41 N4          8.1690   -3.1670   -1.5430 n         1 MOL     -0.367243
     42 C14         7.0570   -3.4220   -2.5250 c3        1 MOL     -0.167233
     43 C15         5.7030   -2.9810   -1.9640 c         1 MOL      0.760673
     44 O9          5.5660   -2.1100   -1.0400 o         1 MOL     -0.595543
     45 H17         8.5460   -3.9430   -1.0230 hn        1 MOL      0.302005
     46 H18         7.0860   -4.5060   -2.6610 h1        1 MOL      0.112338
     47 H19         7.2700   -2.9400   -3.4820 h1        1 MOL      0.112338
     48 N5          4.6280   -3.5210   -2.5920 n         1 MOL     -0.679655
     49 C16         3.3090   -2.8600   -2.3590 c3        1 MOL      0.286629
     50 C17         2.6980   -2.8960   -0.9030 c         1 MOL      0.641252
     51 O10         3.1780   -3.6160   -0.0710 o         1 MOL     -0.478208
     52 C18         2.3590   -3.5580   -3.2670 c3        1 MOL     -0.343084
     53 C19         1.9750   -4.9290   -2.6590 c         1 MOL      0.600952
     54 N6          0.7090   -5.1140   -2.3470 n         1 MOL     -0.737633
     55 O11         2.7940   -5.8070   -2.4270 o         1 MOL     -0.535673
     56 H20         4.6620   -4.1720   -3.3710 hn        1 MOL      0.329563
     57 H21         3.2990   -1.8130   -2.6670 h1        1 MOL     -0.033220
     58 H22         2.9660   -3.8110   -4.1310 hc        1 MOL      0.099724
     59 H23         1.4810   -3.0070   -3.6070 hc        1 MOL      0.099724
     60 H24         0.0920   -4.3300   -2.4190 hn        1 MOL      0.372185
     61 H25         0.4170   -5.9700   -1.8780 hn        1 MOL      0.372185
     62 N7          1.6960   -2.0530   -0.6730 n         1 MOL     -0.626406
     63 C20         0.9030   -2.0420    0.5530 c3        1 MOL      0.067746
     64 C21         1.5710   -1.6160    1.8510 c         1 MOL      0.564205
     65 O12         2.4340   -0.7640    1.8580 o         1 MOL     -0.545662
     66 H26         1.3740   -1.4030   -1.3780 hn        1 MOL      0.332722
     67 H27         0.4130   -2.9980    0.7720 h1        1 MOL      0.086142
     68 H28         0.1050   -1.3220    0.3820 h1        1 MOL      0.086142
     69 N8          1.0850   -2.0560    3.0030 n         1 MOL     -0.461217
     70 C22         0.0680   -3.1640    3.1920 c3        1 MOL     -0.252470
     71 C23        -1.2670   -2.6840    2.7320 c         1 MOL      0.459826
     72 O13        -1.9960   -3.4590    2.0980 o         1 MOL     -0.508118
     73 C24        -0.0950   -3.5000    4.6640 c3        1 MOL      0.602568
     74 C25        -0.8120   -4.7990    4.8190 c3        1 MOL     -0.578013
     75 O14         1.1710   -3.6230    5.2020 oh        1 MOL     -0.671917
     76 H29         1.5070   -1.5770    3.7880 hn        1 MOL      0.297042
     77 H30         0.3350   -4.0600    2.6400 h1        1 MOL      0.142996
     78 H31        -0.5850   -2.6490    5.1410 h1        1 MOL      0.010840
     79 H32         1.7400   -3.6470    4.4380 ho        1 MOL      0.405074
     80 H33        -1.8780   -4.6050    4.6990 hc        1 MOL      0.149051
     81 H34        -0.3490   -5.5890    4.2340 hc        1 MOL      0.149051
     82 H35        -0.7390   -5.0260    5.8840 hc        1 MOL      0.149051
     83 N9         -1.5300   -1.3930    2.8450 n         1 MOL     -0.430719
     84 C26        -2.8520   -0.7500    2.5340 c3        1 MOL      0.025326
     85 C27        -2.7630   -0.0220    1.1780 c         1 MOL      0.657248
     86 O15        -1.8150    0.7840    0.9540 o         1 MOL     -0.625499
     87 C28        -3.3280    0.1330    3.7100 c3        1 MOL      0.253541
     88 C29        -3.3410   -0.7260    5.0070 c3        1 MOL     -0.224579
     89 C30        -4.7140    0.7630    3.5340 c3        1 MOL     -0.472991
     90 C31        -4.0710   -2.0640    4.9160 c3        1 MOL     -0.088041
     91 H36        -0.7920   -0.8260    3.2360 hn        1 MOL      0.271099
     92 H37        -3.5180   -1.5960    2.3860 h1        1 MOL      0.055585
     93 H38        -2.5860    0.9140    3.8930 hc        1 MOL     -0.016135
     94 H39        -3.8310   -0.1370    5.7900 hc        1 MOL      0.055428
     95 H40        -2.2890   -0.8430    5.2850 hc        1 MOL      0.055428
     96 H41        -5.4840   -0.0030    3.4930 hc        1 MOL      0.160213
     97 H42        -5.0400    1.3330    4.4100 hc        1 MOL      0.160213
     98 H43        -4.6720    1.3220    2.6060 hc        1 MOL      0.160213
     99 H44        -4.3530   -2.3220    5.9320 hc        1 MOL      0.028004
    100 H45        -5.0380   -2.0080    4.4070 hc        1 MOL      0.028004
    101 H46        -3.4480   -2.8710    4.5510 hc        1 MOL      0.028004
    102 N10        -3.7720   -0.1760    0.3160 n         1 MOL     -0.568552
    103 C32        -4.9630   -0.9550    0.4340 c3        1 MOL      0.102068
    104 C33        -6.2040   -0.2330   -0.2140 c         1 MOL      0.644557
    105 O16        -6.0870    0.6170   -1.1580 o         1 MOL     -0.535368
    106 C34        -4.8380   -2.3940   -0.1480 c3        1 MOL     -0.032112
    107 C35        -4.4030   -2.4930   -1.5940 c         1 MOL      0.704207
    108 O17        -3.6700   -1.6230   -2.1080 o         1 MOL     -0.727522
    109 O18        -4.8590   -3.4150   -2.2790 o         1 MOL     -0.727522
    110 H47        -3.5870    0.1910   -0.6080 hn        1 MOL      0.331899
    111 H48        -5.2360   -1.0090    1.4890 h1        1 MOL      0.013175
    112 H49        -5.7970   -2.9160   -0.0980 hc        1 MOL     -0.015660
    113 H50        -4.1330   -3.0510    0.3730 hc        1 MOL     -0.015660
    114 N11        -7.4020   -0.5670    0.2470 n         1 MOL     -0.832340
    115 C36        -8.6720   -0.4470   -0.4030 c3        1 MOL      0.717264
    116 C37        -9.7710    0.0750    0.5130 c         1 MOL      0.269181
    117 O19        -9.8520   -0.2900    1.6890 o         1 MOL     -0.481266
    118 C38        -9.0030   -1.8680   -0.8610 c3        1 MOL     -0.108983
    119 C39       -10.0000   -2.0300   -2.0140 ca        1 MOL      0.034168
    120 C40       -11.3710   -2.0670   -1.6950 ca        1 MOL     -0.156095
    121 C41        -9.5920   -1.8940   -3.3210 ca        1 MOL     -0.156095
    122 C42       -12.2760   -1.9850   -2.7720 ca        1 MOL     -0.132821
    123 C43       -10.5250   -1.9320   -4.4110 ca        1 MOL     -0.132821
    124 C44       -11.8670   -1.9480   -4.0840 ca        1 MOL     -0.081552
    125 H51        -7.4080   -1.2260    1.0150 hn        1 MOL      0.336553
    126 H52        -8.5930    0.0850   -1.3530 h1        1 MOL     -0.042963
    127 H53        -9.4610   -2.3450    0.0010 hc        1 MOL      0.012730
    128 H54        -8.0820   -2.3540   -1.1670 hc        1 MOL      0.012730
    129 H55       -11.8190   -2.3210   -0.7480 ha        1 MOL      0.146736
    130 H56        -8.5300   -2.0040   -3.5020 ha        1 MOL      0.146736
    131 H57       -13.3250   -1.8840   -2.5520 ha        1 MOL      0.114027
    132 H58       -10.2330   -1.9850   -5.4480 ha        1 MOL      0.114027
    133 H59       -12.6230   -1.8950   -4.8560 ha        1 MOL      0.079950
    134 N12       -10.7970    0.8200   -0.0340 n         1 MOL     -0.063882
    135 C45       -10.6850    1.5170   -1.3470 c3        1 MOL     -0.069637
    136 C46        -9.5820    2.5210   -1.4400 c         1 MOL      0.427930
    137 O20        -9.1150    2.7750   -2.5450 o         1 MOL     -0.538746
    138 C47       -12.0860    2.1170   -1.4930 c3        1 MOL      0.032343
    139 C48       -13.0000    1.0720   -0.8440 c3        1 MOL      0.009476
    140 C49       -12.1840    0.7230    0.3710 c3        1 MOL     -0.212450
    141 H60       -10.4130    0.8010   -2.1200 h1        1 MOL      0.082186
    142 H61       -12.0810    3.0470   -0.9270 hc        1 MOL      0.028988
    143 H62       -12.4080    2.2800   -2.5290 hc        1 MOL      0.028988
    144 H63       -13.9430    1.5840   -0.6500 hc        1 MOL     -0.004331
    145 H64       -13.0060    0.2410   -1.5410 hc        1 MOL     -0.004331
    146 H65       -12.3800    1.4300    1.1820 h1        1 MOL      0.092680
    147 H66       -12.3980   -0.2970    0.7100 h1        1 MOL      0.092680
    148 N13        -9.1460    2.9760   -0.2880 n         1 MOL     -0.377187
    149 C50        -7.8660    3.7760   -0.2700 c3        1 MOL      0.047028
    150 C51        -8.0720    5.0530   -1.0640 c         1 MOL      0.542162
    151 O21        -8.8450    5.9460   -0.7060 o         1 MOL     -0.581747
    152 C52        -7.4910    4.1280    1.1370 c3        1 MOL      0.051535
    153 C53        -7.0980    2.9720    2.0750 c3        1 MOL     -0.013366
    154 C54        -7.1020    3.3570    3.5410 c         1 MOL      0.695522
    155 O22        -7.7680    2.6490    4.3790 o         1 MOL     -0.737771
    156 O23        -6.4490    4.3550    3.9530 o         1 MOL     -0.737771
    157 H67        -9.5950    2.6560    0.5650 hn        1 MOL      0.299436
    158 H68        -7.0430    3.1900   -0.6870 h1        1 MOL      0.133680
    159 H69        -8.2670    4.7100    1.6420 hc        1 MOL     -0.014680
    160 H70        -6.5780    4.7040    0.9890 hc        1 MOL     -0.014680
    161 H71        -6.0930    2.7000    1.7230 hc        1 MOL     -0.073526
    162 H72        -7.7770    2.1310    1.9460 hc        1 MOL     -0.073526
    163 N14        -7.2300    5.3580   -2.0970 n         1 MOL     -0.420070
    164 C55        -6.4370    4.4450   -2.9570 c3        1 MOL     -0.082915
    165 H73        -6.2030    3.5370   -2.4020 h1        1 MOL      0.065530
    166 H74        -7.0150    4.1890   -3.8450 h1        1 MOL      0.065530
    167 H75        -5.5120    4.9380   -3.2540 h1        1 MOL      0.065530
    168 H76        -7.2890    6.3080   -2.4400 hn        1 MOL      0.267522
    169 Ca1         6.2440    0.6260   -1.0360 Ca        1 MOL      1.748455
    170 O24         4.8990    2.7240   -2.1980 oh        1 MOL     -0.856991
    171 H77         4.0390    3.0850   -2.4210 ho        1 MOL      0.422757
    172 H78         5.5210    3.2940   -2.6320 ho        1 MOL      0.422757
    173 O25         6.5300    2.2460    1.1180 oh        1 MOL     -0.856991
    174 H79         6.1130    2.5800    1.9060 ho        1 MOL      0.422757
    175 H80         7.4060    1.9670    1.4050 ho        1 MOL      0.422757
    176 O26         3.8040    0.6670   -0.1350 oh        1 MOL     -0.856991
    177 H81         3.3710    0.2800    0.6270 ho        1 MOL      0.422757
    178 H82         3.2270    1.3750   -0.4030 ho        1 MOL      0.422757
    179 O27         5.0910   -0.0220   -3.2990 oh        1 MOL     -0.856991
    180 H83         5.3200    0.0830   -4.2260 ho        1 MOL      0.422757
    181 H84         4.1630    0.1640   -3.2550 ho        1 MOL      0.422757
@<TRIPOS>BOND
     1    1    2 1   
     2    1    4 1   
     3    1    5 1   
     4    1    6 1   
     5    2    3 2   
     6    2    7 1   
     7    7    8 1   
     8    7   15 1   
     9    8    9 1   
    10    8   11 1   
    11    8   16 1   
    12    9   10 2   
    13    9   19 1   
    14   11   12 1   
    15   11   17 1   
    16   11   18 1   
    17   12   13 1   
    18   12   14 1   
    19   19   20 1   
    20   19   24 1   
    21   20   21 1   
    22   20   23 1   
    23   20   25 1   
    24   21   22 2   
    25   21   29 1   
    26   23   26 1   
    27   23   27 1   
    28   23   28 1   
    29   29   30 1   
    30   29   37 1   
    31   30   31 1   
    32   30   33 1   
    33   30   38 1   
    34   31   32 2   
    35   31   41 1   
    36   33   34 1   
    37   33   39 1   
    38   33   40 1   
    39   34   35 1   
    40   34   36 1   
    41   41   42 1   
    42   41   45 1   
    43   42   43 1   
    44   42   46 1   
    45   42   47 1   
    46   43   44 2   
    47   43   48 1   
    48   48   49 1   
    49   48   56 1   
    50   49   50 1   
    51   49   52 1   
    52   49   57 1   
    53   50   51 2   
    54   50   62 1   
    55   52   53 1   
    56   52   58 1   
    57   52   59 1   
    58   53   54 1   
    59   53   55 2   
    60   54   60 1   
    61   54   61 1   
    62   62   63 1   
    63   62   66 1   
    64   63   64 1   
    65   63   67 1   
    66   63   68 1   
    67   64   65 2   
    68   64   69 1   
    69   69   70 1   
    70   69   76 1   
    71   70   71 1   
    72   70   73 1   
    73   70   77 1   
    74   71   72 2   
    75   71   83 1   
    76   73   74 1   
    77   73   75 1   
    78   73   78 1   
    79   74   80 1   
    80   74   81 1   
    81   74   82 1   
    82   75   79 1   
    83   83   84 1   
    84   83   91 1   
    85   84   85 1   
    86   84   87 1   
    87   84   92 1   
    88   85   86 2   
    89   85  102 1   
    90   87   88 1   
    91   87   89 1   
    92   87   93 1   
    93   88   90 1   
    94   88   94 1   
    95   88   95 1   
    96   89   96 1   
    97   89   97 1   
    98   89   98 1   
    99   90   99 1   
   100   90  100 1   
   101   90  101 1   
   102  102  103 1   
   103  102  110 1   
   104  103  104 1   
   105  103  106 1   
   106  103  111 1   
   107  104  105 2   
   108  104  114 1   
   109  106  107 1   
   110  106  112 1   
   111  106  113 1   
   112  107  108 1   
   113  107  109 1   
   114  114  115 1   
   115  114  125 1   
   116  115  116 1   
   117  115  118 1   
   118  115  126 1   
   119  116  117 2   
   120  116  134 1   
   121  118  119 1   
   122  118  127 1   
   123  118  128 1   
   124  119  120 ar  
   125  119  121 ar  
   126  120  122 ar  
   127  120  129 1   
   128  121  123 ar  
   129  121  130 1   
   130  122  124 ar  
   131  122  131 1   
   132  123  124 ar  
   133  123  132 1   
   134  124  133 1   
   135  134  135 1   
   136  134  140 1   
   137  135  136 1   
   138  135  138 1   
   139  135  141 1   
   140  136  137 2   
   141  136  148 1   
   142  138  139 1   
   143  138  142 1   
   144  138  143 1   
   145  139  140 1   
   146  139  144 1   
   147  139  145 1   
   148  140  146 1   
   149  140  147 1   
   150  148  149 1   
   151  148  157 1   
   152  149  150 1   
   153  149  152 1   
   154  149  158 1   
   155  150  151 2   
   156  150  163 1   
   157  152  153 1   
   158  152  159 1   
   159  152  160 1   
   160  153  154 1   
   161  153  161 1   
   162  153  162 1   
   163  154  155 1   
   164  154  156 1   
   165  163  164 1   
   166  163  168 1   
   167  164  165 1   
   168  164  166 1   
   169  164  167 1   
   170  170  171 1   
   171  170  172 1   
   172  173  174 1   
   173  173  175 1   
   174  176  177 1   
   175  176  178 1   
   176  179  180 1   
   177  179  181 1   
@<TRIPOS>SUBSTRUCTURE
     1 MOL         1 TEMP              0 ****  ****    0 ROOT
