@<TRIPOS>MOLECULE
MOL
  197   188     1     0     0
SMALL
resp


@<TRIPOS>ATOM
      1 C1          0.9110    0.5770    3.4660 c3        1 MOL     -0.546314
      2 C2          2.0900    0.4030    2.5430 c         1 MOL      0.634491
      3 O1          2.2990    1.0330    1.5470 o         1 MOL     -0.524276
      4 H1          0.7690   -0.3330    4.0490 hc        1 MOL      0.155157
      5 H2          1.0980    1.4130    4.1410 hc        1 MOL      0.155157
      6 H3          0.0150    0.7760    2.8800 hc        1 MOL      0.155157
      7 N1          3.0620   -0.3400    3.0690 n         1 MOL     -0.431250
      8 C3          4.3730   -0.5860    2.4630 c3        1 MOL      0.074693
      9 C4          4.8310   -2.0220    2.0340 c         1 MOL      0.173070
     10 O2          5.9390   -2.1660    1.5270 o         1 MOL     -0.392523
     11 C5          5.4640    0.2230    3.1900 c3        1 MOL     -0.131439
     12 C6          5.7710   -0.1180    4.6790 c         1 MOL      0.679910
     13 O3          6.6370    0.5610    5.2690 o         1 MOL     -0.706749
     14 O4          5.1670   -1.0100    5.2900 o         1 MOL     -0.706749
     15 H4          2.9340   -0.7440    3.9800 hn        1 MOL      0.269042
     16 H5          4.3340   -0.0990    1.4850 h1        1 MOL      0.122245
     17 H6          5.2350    1.2870    3.2430 hc        1 MOL      0.043919
     18 H7          6.3630    0.1690    2.5640 hc        1 MOL      0.043919
     19 N2          3.8390   -2.9370    2.1740 n         1 MOL     -0.447213
     20 C7          3.8650   -4.2830    1.5780 c3        1 MOL      0.216046
     21 C8          4.6130   -4.3770    0.2560 c         1 MOL      0.328199
     22 O5          5.4850   -5.2350    0.0800 o         1 MOL     -0.492511
     23 C9          4.4510   -5.2410    2.6670 c3        1 MOL     -0.040928
     24 C10         5.7630   -4.9230    3.3620 c3        1 MOL      0.078107
     25 C11         6.4720   -6.1390    3.8710 c3        1 MOL     -0.025528
     26 C12         7.6430   -5.6160    4.7700 c3        1 MOL      0.108632
     27 N3          8.4370   -6.7690    5.3300 n4        1 MOL     -0.334245
     28 H8          3.1090   -2.6860    2.8190 hn        1 MOL      0.292045
     29 H9          2.8570   -4.5690    1.2720 h1        1 MOL      0.038662
     30 H10         4.5970   -6.2090    2.1840 hc        1 MOL     -0.003379
     31 H11         3.6280   -5.4040    3.3720 hc        1 MOL     -0.003379
     32 H12         5.5750   -4.3800    4.2810 hc        1 MOL      0.045062
     33 H13         6.4130   -4.3660    2.6870 hc        1 MOL      0.045062
     34 H14         6.9500   -6.6900    3.0570 hc        1 MOL      0.009006
     35 H15         5.8680   -6.8110    4.4740 hc        1 MOL      0.009006
     36 H16         7.1290   -5.0540    5.5520 hx        1 MOL      0.063266
     37 H17         8.2280   -4.9040    4.1880 hx        1 MOL      0.063266
     38 H18         9.0930   -6.4600    6.0310 hn        1 MOL      0.283871
     39 H19         7.8140   -7.4720    5.7110 hn        1 MOL      0.283871
     40 H20         9.0050   -7.1580    4.5930 hn        1 MOL      0.283871
     41 N4          4.2480   -3.5580   -0.7430 n         1 MOL     -0.123886
     42 C13         5.0810   -3.2180   -1.9480 c3        1 MOL     -0.032449
     43 C14         5.5570   -1.7100   -2.0050 c         1 MOL      0.518302
     44 O6          4.9350   -0.7620   -1.4210 o         1 MOL     -0.507627
     45 C15         4.3900   -3.6030   -3.2590 c3        1 MOL     -0.156017
     46 C16         3.0320   -2.9310   -3.4520 c         1 MOL      0.659958
     47 O7          2.0570   -3.7410   -3.3620 o         1 MOL     -0.725678
     48 O8          2.9150   -1.6930   -3.4760 o         1 MOL     -0.725678
     49 H21         3.4270   -3.0150   -0.5100 hn        1 MOL      0.177682
     50 H22         6.0160   -3.7720   -1.8460 h1        1 MOL      0.082295
     51 H23         4.3240   -4.6880   -3.2440 hc        1 MOL      0.055534
     52 H24         4.9700   -3.2900   -4.1340 hc        1 MOL      0.055534
     53 N5          6.5830   -1.3530   -2.7960 n         1 MOL     -0.339271
     54 C17         7.0950   -0.0160   -3.0920 c3        1 MOL     -0.027272
     55 C18         8.0390    0.6290   -2.1530 c         1 MOL      0.507031
     56 O9          9.1830    0.1580   -2.0280 o         1 MOL     -0.555994
     57 H25         7.1990   -2.1240   -3.0230 hn        1 MOL      0.266278
     58 H26         6.2070    0.6070   -3.1120 h1        1 MOL      0.066051
     59 H27         7.5590   -0.0130   -4.0810 h1        1 MOL      0.066051
     60 N6          7.7460    1.6800   -1.3750 n         1 MOL     -0.404076
     61 C19         6.6380    2.6370   -1.4160 c3        1 MOL      0.181449
     62 C20         6.3200    3.1160    0.0120 c         1 MOL      0.547126
     63 O10         7.2230    3.0310    0.8600 o         1 MOL     -0.528320
     64 C21         6.9420    3.8400   -2.3590 c3        1 MOL     -0.410374
     65 C22         7.0860    3.2890   -3.7890 c         1 MOL      0.705016
     66 N7          8.2900    3.3510   -4.2580 n         1 MOL     -0.751359
     67 O11         6.1670    2.7850   -4.3970 o         1 MOL     -0.575512
     68 H28         8.4820    1.9430   -0.7230 hn        1 MOL      0.288348
     69 H29         5.7670    2.0370   -1.7000 h1        1 MOL      0.042247
     70 H30         7.8410    4.2490   -1.9110 hc        1 MOL      0.126462
     71 H31         6.0850    4.5090   -2.3630 hc        1 MOL      0.126462
     72 H32         9.0610    3.5700   -3.6520 hn        1 MOL      0.360184
     73 H33         8.4230    2.8600   -5.1360 hn        1 MOL      0.360184
     74 N8          5.0780    3.4520    0.4070 n         1 MOL     -0.594437
     75 C23         3.8300    3.3320   -0.3750 c3        1 MOL      0.108629
     76 C24         2.6790    4.3320   -0.0210 c         1 MOL      0.670643
     77 O12         2.8490    5.4630    0.3150 o         1 MOL     -0.565647
     78 H34         5.0000    3.8140    1.3490 hn        1 MOL      0.360139
     79 H35         3.5400    2.3000   -0.2270 h1        1 MOL      0.016131
     80 H36         4.0330    3.5150   -1.4260 h1        1 MOL      0.016131
     81 N9          1.4800    3.8920   -0.2400 n         1 MOL     -0.564334
     82 C25         0.2150    4.4720    0.3090 c3        1 MOL      0.256993
     83 C26        -0.8070    3.3120    0.4380 c         1 MOL      0.627450
     84 O13        -0.5750    2.2330   -0.1080 o         1 MOL     -0.547807
     85 C27        -0.3380    5.6790   -0.5500 c3        1 MOL      0.025902
     86 C28        -0.8960    6.7460    0.4410 ca        1 MOL     -0.037686
     87 C29        -2.2930    6.8260    0.5580 ca        1 MOL     -0.178543
     88 C30        -0.0480    7.4840    1.2800 ca        1 MOL     -0.178543
     89 C31        -2.8560    7.7620    1.4520 ca        1 MOL     -0.199251
     90 C32        -0.6130    8.4820    2.1030 ca        1 MOL     -0.199251
     91 C33        -1.9810    8.6590    2.0840 ca        1 MOL      0.321204
     92 O14        -2.5020    9.6470    2.7480 oh        1 MOL     -0.514307
     93 H37         1.4330    2.9750   -0.6620 hn        1 MOL      0.164059
     94 H38         0.5610    4.8670    1.2580 h1        1 MOL      0.043659
     95 H39        -1.1700    5.2960   -1.1470 hc        1 MOL      0.019725
     96 H40         0.3840    6.1380   -1.2230 hc        1 MOL      0.019725
     97 H41        -3.0180    6.2190    0.0330 ha        1 MOL      0.147011
     98 H42         1.0110    7.3410    1.0920 ha        1 MOL      0.147011
     99 H43        -3.9190    7.9520    1.4350 ha        1 MOL      0.129730
    100 H44        -0.0140    9.2210    2.6070 ha        1 MOL      0.129730
    101 H45        -1.9220   10.3920    2.8780 ho        1 MOL      0.399150
    102 N10        -1.8740    3.4800    1.1820 n         1 MOL     -0.693980
    103 C34        -2.9320    2.4760    1.2590 c3        1 MOL      0.196239
    104 C35        -3.7910    2.4850   -0.0550 c         1 MOL      0.404224
    105 O15        -3.5540    3.2970   -0.9360 o         1 MOL     -0.494534
    106 C36        -3.8110    2.7580    2.5000 c3        1 MOL      0.165181
    107 C37        -4.4650    4.1400    2.6680 c3        1 MOL      0.057298
    108 C38        -4.8610    1.6680    2.8600 c3        1 MOL     -0.479675
    109 C39        -4.8960    4.5530    4.1380 c3        1 MOL     -0.279001
    110 H46        -2.0900    4.3730    1.6010 hn        1 MOL      0.303742
    111 H47        -2.4570    1.5060    1.3730 h1        1 MOL      0.049763
    112 H48        -3.0060    2.7720    3.2280 hc        1 MOL      0.002642
    113 H49        -5.3680    4.0910    2.0790 hc        1 MOL      0.013238
    114 H50        -3.8730    4.9340    2.2200 hc        1 MOL      0.013238
    115 H51        -5.8560    1.9130    2.5110 hc        1 MOL      0.135341
    116 H52        -4.5950    0.6800    2.4910 hc        1 MOL      0.135341
    117 H53        -5.0400    1.5950    3.9310 hc        1 MOL      0.135341
    118 H54        -4.0160    4.6650    4.7780 hc        1 MOL      0.080562
    119 H55        -5.4190    5.5050    4.0720 hc        1 MOL      0.080562
    120 H56        -5.5000    3.7620    4.5790 hc        1 MOL      0.080562
    121 N11        -4.6190    1.4640   -0.1800 n         1 MOL     -0.462087
    122 C40        -5.4520    1.3230   -1.3970 c3        1 MOL      0.226222
    123 C41        -5.4760   -0.1060   -1.8840 c         1 MOL      0.493015
    124 O16        -5.3080   -0.9590   -1.0440 o         1 MOL     -0.434048
    125 C42        -6.8260    1.8060   -1.1400 c3        1 MOL     -0.215194
    126 O17        -7.6200    0.8040   -0.4480 oh        1 MOL     -0.458617
    127 H57        -4.6740    0.8160    0.5940 hn        1 MOL      0.248538
    128 H58        -5.0690    1.9520   -2.1930 h1        1 MOL      0.037398
    129 H59        -7.3650    2.0340   -2.0730 h1        1 MOL      0.108736
    130 H60        -6.8410    2.7610   -0.6210 h1        1 MOL      0.108736
    131 H61        -8.5300    1.0900   -0.4590 ho        1 MOL      0.396895
    132 N12        -5.7910   -0.3680   -3.1650 n         1 MOL     -0.476657
    133 C43        -5.9940   -1.6350   -3.8310 c3        1 MOL      0.495128
    134 C44        -7.1530   -2.4930   -3.1970 c         1 MOL      0.173464
    135 O18        -7.0370   -3.6680   -2.9180 o         1 MOL     -0.420116
    136 C45        -4.5420   -2.2260   -4.0340 c3        1 MOL     -0.633795
    137 H62        -5.7910    0.3870   -3.8330 hn        1 MOL      0.243086
    138 H63        -6.4550   -1.3710   -4.7810 h1        1 MOL     -0.011650
    139 H64        -3.8760   -1.3680   -4.2070 hc        1 MOL      0.150604
    140 H65        -4.0790   -2.6470   -3.1370 hc        1 MOL      0.150604
    141 H66        -4.5040   -2.9610   -4.8410 hc        1 MOL      0.150604
    142 N13        -8.1920   -1.8170   -2.7490 n         1 MOL     -0.133690
    143 C46        -9.2490   -2.1340   -1.8800 c3        1 MOL      0.436139
    144 C47        -8.9110   -2.7300   -0.5240 c         1 MOL      0.213045
    145 O19        -9.6350   -3.5400    0.0700 o         1 MOL     -0.465049
    146 C48       -10.3120   -2.8740   -2.7190 c3        1 MOL     -0.306952
    147 H67        -8.2930   -0.9180   -3.1850 hn        1 MOL      0.106685
    148 H68        -9.6970   -1.1810   -1.6010 h1        1 MOL     -0.063383
    149 H69       -10.0610   -3.9260   -2.8120 hc        1 MOL      0.070309
    150 H70       -11.3330   -2.6990   -2.3890 hc        1 MOL      0.070309
    151 H71       -10.2140   -2.4160   -3.7020 hc        1 MOL      0.070309
    152 N14        -7.8040   -2.2310    0.0920 n         1 MOL     -0.090624
    153 C49        -7.5220   -2.6430    1.4930 c3        1 MOL     -0.179640
    154 C50        -8.5370   -2.1130    2.5730 c         1 MOL      0.404936
    155 O20        -8.8460   -2.8840    3.5020 o         1 MOL     -0.457550
    156 C51        -6.0650   -2.4000    1.9140 c3        1 MOL      0.148885
    157 C52        -5.4780   -3.2770    3.0020 c3        1 MOL     -0.129944
    158 C53        -5.2810   -4.6960    2.4700 c         1 MOL      0.697135
    159 O21        -6.0930   -5.5850    2.7110 o         1 MOL     -0.680031
    160 O22        -4.1790   -4.8610    1.8830 o         1 MOL     -0.680031
    161 H72        -7.2390   -1.5740   -0.4350 hn        1 MOL      0.092835
    162 H73        -7.6470   -3.7230    1.4940 h1        1 MOL      0.203087
    163 H74        -6.0050   -1.3400    2.1660 hc        1 MOL     -0.030661
    164 H75        -5.3990   -2.5240    1.0610 hc        1 MOL     -0.030661
    165 H76        -6.1940   -3.2790    3.8120 hc        1 MOL     -0.013203
    166 H77        -4.5420   -2.8600    3.3850 hc        1 MOL     -0.013203
    167 N15        -9.0090   -0.8060    2.4130 n         1 MOL     -0.151858
    168 C54        -9.9590   -0.1370    3.2460 c3        1 MOL     -0.099420
    169 H78       -10.5760   -0.8750    3.7580 h1        1 MOL      0.057047
    170 H79        -9.4330    0.4700    3.9840 h1        1 MOL      0.057047
    171 H80       -10.5920    0.5040    2.6340 h1        1 MOL      0.057047
    172 H81        -8.6200   -0.3070    1.6230 hn        1 MOL      0.096967
    173 Ca1         0.5840   -1.1210   -2.6230 Ca        1 MOL      1.781906
    174 O23        -1.5030   -0.0780   -3.9320 oh        1 MOL     -0.838605
    175 H82        -0.9900    0.1330   -4.7210 ho        1 MOL      0.417122
    176 H83        -2.3270    0.3890   -4.0450 ho        1 MOL      0.417122
    177 O24         0.8000   -0.5280   -5.4660 oh        1 MOL     -0.838605
    178 H84         1.0420    0.1280   -6.1080 ho        1 MOL      0.417122
    179 H85         1.2430   -1.3290   -5.7530 ho        1 MOL      0.417122
    180 O25         2.3920   -0.2550   -0.8220 oh        1 MOL     -0.838605
    181 H86         3.3350   -0.4000   -0.8290 ho        1 MOL      0.417122
    182 H87         2.2390    0.2260   -0.0100 ho        1 MOL      0.417122
    183 O26        -1.9030   -2.4240   -2.0220 oh        1 MOL     -0.838605
    184 H88        -2.4660   -3.0550   -1.5620 ho        1 MOL      0.417122
    185 H89        -2.1930   -2.4620   -2.9300 ho        1 MOL      0.417122
    186 O27         0.9650    1.3770   -3.1180 oh        1 MOL     -0.838605
    187 H90         1.8590    1.5720   -3.4180 ho        1 MOL      0.417122
    188 H91         0.5510    2.2350   -3.0260 ho        1 MOL      0.417122
    189 O28         1.0550   -3.0670   -0.5920 oh        1 MOL     -0.838605
    190 H92         1.0730   -4.0110   -0.7450 ho        1 MOL      0.417122
    191 H93         0.3450   -2.9360    0.0420 ho        1 MOL      0.417122
    192 O29        -0.5010   -0.6050   -0.1850 oh        1 MOL     -0.838605
    193 H94        -1.4180   -0.7440   -0.4220 ho        1 MOL      0.417122
    194 H95        -0.4860    0.2720    0.1990 ho        1 MOL      0.417122
    195 O30        -0.1600   -3.1090   -4.3480 oh        1 MOL     -0.838605
    196 H96         0.6170   -3.6730   -4.2920 ho        1 MOL      0.417122
    197 H97        -0.5030   -3.2640   -5.2350 ho        1 MOL      0.417122
@<TRIPOS>BOND
     1    1    2 1   
     2    1    4 1   
     3    1    5 1   
     4    1    6 1   
     5    2    3 2   
     6    2    7 1   
     7    7    8 1   
     8    7   15 1   
     9    8    9 1   
    10    8   11 1   
    11    8   16 1   
    12    9   10 2   
    13    9   19 1   
    14   11   12 1   
    15   11   17 1   
    16   11   18 1   
    17   12   13 1   
    18   12   14 1   
    19   19   20 1   
    20   19   28 1   
    21   20   21 1   
    22   20   23 1   
    23   20   29 1   
    24   21   22 2   
    25   21   41 1   
    26   23   24 1   
    27   23   30 1   
    28   23   31 1   
    29   24   25 1   
    30   24   32 1   
    31   24   33 1   
    32   25   26 1   
    33   25   34 1   
    34   25   35 1   
    35   26   27 1   
    36   26   36 1   
    37   26   37 1   
    38   27   38 1   
    39   27   39 1   
    40   27   40 1   
    41   41   42 1   
    42   41   49 1   
    43   42   43 1   
    44   42   45 1   
    45   42   50 1   
    46   43   44 2   
    47   43   53 1   
    48   45   46 1   
    49   45   51 1   
    50   45   52 1   
    51   46   47 1   
    52   46   48 1   
    53   53   54 1   
    54   53   57 1   
    55   54   55 1   
    56   54   58 1   
    57   54   59 1   
    58   55   56 2   
    59   55   60 1   
    60   60   61 1   
    61   60   68 1   
    62   61   62 1   
    63   61   64 1   
    64   61   69 1   
    65   62   63 2   
    66   62   74 1   
    67   64   65 1   
    68   64   70 1   
    69   64   71 1   
    70   65   66 1   
    71   65   67 2   
    72   66   72 1   
    73   66   73 1   
    74   74   75 1   
    75   74   78 1   
    76   75   76 1   
    77   75   79 1   
    78   75   80 1   
    79   76   77 2   
    80   76   81 1   
    81   81   82 1   
    82   81   93 1   
    83   82   83 1   
    84   82   85 1   
    85   82   94 1   
    86   83   84 2   
    87   83  102 1   
    88   85   86 1   
    89   85   95 1   
    90   85   96 1   
    91   86   87 ar  
    92   86   88 ar  
    93   87   89 ar  
    94   87   97 1   
    95   88   90 ar  
    96   88   98 1   
    97   89   91 ar  
    98   89   99 1   
    99   90   91 ar  
   100   90  100 1   
   101   91   92 1   
   102   92  101 1   
   103  102  103 1   
   104  102  110 1   
   105  103  104 1   
   106  103  106 1   
   107  103  111 1   
   108  104  105 2   
   109  104  121 1   
   110  106  107 1   
   111  106  108 1   
   112  106  112 1   
   113  107  109 1   
   114  107  113 1   
   115  107  114 1   
   116  108  115 1   
   117  108  116 1   
   118  108  117 1   
   119  109  118 1   
   120  109  119 1   
   121  109  120 1   
   122  121  122 1   
   123  121  127 1   
   124  122  123 1   
   125  122  125 1   
   126  122  128 1   
   127  123  124 2   
   128  123  132 1   
   129  125  126 1   
   130  125  129 1   
   131  125  130 1   
   132  126  131 1   
   133  132  133 1   
   134  132  137 1   
   135  133  134 1   
   136  133  136 1   
   137  133  138 1   
   138  134  135 2   
   139  134  142 1   
   140  136  139 1   
   141  136  140 1   
   142  136  141 1   
   143  142  143 1   
   144  142  147 1   
   145  143  144 1   
   146  143  146 1   
   147  143  148 1   
   148  144  145 2   
   149  144  152 1   
   150  146  149 1   
   151  146  150 1   
   152  146  151 1   
   153  152  153 1   
   154  152  161 1   
   155  153  154 1   
   156  153  156 1   
   157  153  162 1   
   158  154  155 2   
   159  154  167 1   
   160  156  157 1   
   161  156  163 1   
   162  156  164 1   
   163  157  158 1   
   164  157  165 1   
   165  157  166 1   
   166  158  159 1   
   167  158  160 1   
   168  167  168 1   
   169  167  172 1   
   170  168  169 1   
   171  168  170 1   
   172  168  171 1   
   173  174  175 1   
   174  174  176 1   
   175  177  178 1   
   176  177  179 1   
   177  180  181 1   
   178  180  182 1   
   179  183  184 1   
   180  183  185 1   
   181  186  187 1   
   182  186  188 1   
   183  189  190 1   
   184  189  191 1   
   185  192  193 1   
   186  192  194 1   
   187  195  196 1   
   188  195  197 1   
@<TRIPOS>SUBSTRUCTURE
     1 MOL         1 TEMP              0 ****  ****    0 ROOT
