@<TRIPOS>MOLECULE
MOL
  181   177     1     0     0
SMALL
resp


@<TRIPOS>ATOM
      1 C1          2.5230   -0.9190    4.9520 c3        1 MOL     -0.438905
      2 C2          3.4260   -0.1680    3.9330 c         1 MOL      0.762905
      3 O1          2.9670    0.7770    3.2860 o         1 MOL     -0.581229
      4 H1          1.5660   -0.4030    5.0380 hc        1 MOL      0.098241
      5 H2          2.3550   -1.9390    4.6060 hc        1 MOL      0.098241
      6 H3          3.0120   -0.9410    5.9260 hc        1 MOL      0.098241
      7 N1          4.6790   -0.5320    3.8600 n         1 MOL     -0.499485
      8 C3          5.8000    0.2460    3.2250 c3        1 MOL     -0.001447
      9 C4          6.4870   -0.4360    2.0270 c         1 MOL      0.635173
     10 O2          6.7140    0.1950    0.9760 o         1 MOL     -0.483155
     11 C5          6.8410    0.4890    4.3120 c3        1 MOL      0.070703
     12 C6          7.9470    1.4470    3.9320 c         1 MOL      0.630704
     13 O3          9.0340    0.9330    3.7030 o         1 MOL     -0.704769
     14 O4          7.6750    2.7010    3.8940 o         1 MOL     -0.704769
     15 H4          4.9110   -1.3450    4.4170 hn        1 MOL      0.248145
     16 H5          5.4030    1.2230    2.9480 h1        1 MOL      0.075351
     17 H6          7.2730   -0.4560    4.6610 hc        1 MOL     -0.063260
     18 H7          6.3360    0.8050    5.2220 hc        1 MOL     -0.063260
     19 N2          6.6950   -1.7780    2.1420 n         1 MOL     -0.664465
     20 C7          7.5240   -2.6240    1.2380 c3        1 MOL      0.470420
     21 C8          7.1110   -2.5880   -0.2450 c         1 MOL      0.273778
     22 O5          8.0050   -2.6030   -1.1270 o         1 MOL     -0.509489
     23 C9          9.0750   -2.2930    1.4850 c3        1 MOL     -0.276480
     24 H8          6.4870   -2.1430    3.0570 hn        1 MOL      0.303267
     25 H9          7.4430   -3.6280    1.6530 h1        1 MOL     -0.009843
     26 H10         9.5350   -1.4790    0.9220 hc        1 MOL      0.070067
     27 H11         9.2630   -2.0490    2.5300 hc        1 MOL      0.070067
     28 H12         9.5500   -3.2460    1.2530 hc        1 MOL      0.070067
     29 N3          5.8060   -2.4440   -0.5460 n         1 MOL     -0.371336
     30 C10         5.3020   -2.1990   -1.8830 c3        1 MOL      0.099677
     31 C11         5.6260   -0.7570   -2.5060 c         1 MOL      0.620014
     32 O6          5.5360   -0.5340   -3.7250 o         1 MOL     -0.581296
     33 C12         5.6060   -3.3380   -2.9110 c3        1 MOL     -0.274711
     34 C13         4.3680   -3.9210   -3.5870 c         1 MOL      0.666679
     35 O7          4.4070   -4.4630   -4.7000 o         1 MOL     -0.712378
     36 O8          3.3020   -3.9020   -2.9760 o         1 MOL     -0.712378
     37 H13         5.2610   -2.5590    0.2920 hn        1 MOL      0.204839
     38 H14         4.2210   -2.2000   -1.7530 h1        1 MOL      0.067447
     39 H15         6.1310   -4.1510   -2.4310 hc        1 MOL      0.093772
     40 H16         6.3150   -3.0590   -3.6960 hc        1 MOL      0.093772
     41 N4          6.0230    0.2460   -1.7400 n         1 MOL     -0.281188
     42 C14         6.2480    1.6460   -2.0720 c3        1 MOL     -0.030581
     43 C15         5.0310    2.2940   -2.8890 c         1 MOL      0.402873
     44 O9          5.1390    3.3000   -3.5760 o         1 MOL     -0.505401
     45 H17         6.0710    0.0170   -0.7610 hn        1 MOL      0.170494
     46 H18         7.2130    1.8590   -2.5200 h1        1 MOL      0.090752
     47 H19         6.2490    2.2120   -1.1350 h1        1 MOL      0.090752
     48 N5          3.8090    1.7680   -2.5920 n         1 MOL     -0.313135
     49 C16         2.4900    2.3800   -2.9230 c3        1 MOL      0.147821
     50 C17         2.3200    3.8060   -2.2750 c         1 MOL      0.477972
     51 O10         3.1410    4.2960   -1.5160 o         1 MOL     -0.441589
     52 C18         1.3430    1.3890   -2.6780 c3        1 MOL     -0.287721
     53 C19         1.5810    0.1040   -3.4360 c         1 MOL      0.681246
     54 N6          1.4550    0.1690   -4.7080 n         1 MOL     -0.725311
     55 O11         1.9430   -0.8180   -2.7330 o         1 MOL     -0.732681
     56 H20         3.7950    1.0000   -1.9330 hn        1 MOL      0.244538
     57 H21         2.4110    2.5740   -3.9970 h1        1 MOL      0.019782
     58 H22         0.4080    1.8510   -2.9860 hc        1 MOL      0.104041
     59 H23         1.2760    1.0850   -1.6320 hc        1 MOL      0.104041
     60 H24         1.1050    0.9610   -5.2220 hn        1 MOL      0.361858
     61 H25         1.8530   -0.6450   -5.1660 hn        1 MOL      0.361858
     62 N7          1.2520    4.4950   -2.7510 n         1 MOL     -0.486618
     63 C20         0.8170    5.8310   -2.4810 c3        1 MOL      0.159344
     64 C21        -0.6330    5.9280   -2.1380 c         1 MOL      0.344348
     65 O12        -1.5170    5.0680   -2.4470 o         1 MOL     -0.460593
     66 H26         0.6240    3.9210   -3.2890 hn        1 MOL      0.237005
     67 H27         1.1380    6.6490   -3.1260 h1        1 MOL      0.049647
     68 H28         1.3050    6.1340   -1.5580 h1        1 MOL      0.049647
     69 N8         -0.9700    7.0030   -1.4040 n         1 MOL     -0.348746
     70 C22        -2.3670    7.2870   -1.0090 c3        1 MOL     -0.204690
     71 C23        -3.0320    6.2270   -0.1310 c         1 MOL      0.367800
     72 O13        -4.3010    6.1270   -0.2010 o         1 MOL     -0.548502
     73 C24        -2.5980    8.6760   -0.4160 c3        1 MOL      0.419357
     74 C25        -1.7540    8.8660    0.8800 c3        1 MOL     -0.385934
     75 O14        -2.2440    9.5510   -1.4480 oh        1 MOL     -0.613716
     76 H29        -0.3180    7.7240   -1.1340 hn        1 MOL      0.246840
     77 H30        -2.9460    7.2410   -1.9350 h1        1 MOL      0.152773
     78 H31        -3.6640    8.8050   -0.2780 h1        1 MOL      0.062390
     79 H32        -1.3050    9.4110   -1.5270 ho        1 MOL      0.364988
     80 H33        -1.6990    9.9360    1.1120 hc        1 MOL      0.094789
     81 H34        -2.2320    8.3480    1.7050 hc        1 MOL      0.094789
     82 H35        -0.7690    8.4130    0.7680 hc        1 MOL      0.094789
     83 N9         -2.2340    5.4620    0.6420 n         1 MOL      0.005381
     84 C26        -2.6260    4.3060    1.5090 c3        1 MOL     -0.157639
     85 C27        -1.7470    3.0890    1.0110 c         1 MOL      0.440054
     86 O15        -0.5640    3.2250    0.6350 o         1 MOL     -0.472862
     87 C28        -2.5290    4.6050    3.0240 c3        1 MOL      0.074772
     88 C29        -1.1530    5.0600    3.6160 c3        1 MOL      0.003901
     89 C30        -3.5920    5.6770    3.3040 c3        1 MOL     -0.331678
     90 C31        -0.0730    4.0200    3.8450 c3        1 MOL     -0.222806
     91 H36        -1.2580    5.7230    0.6240 hn        1 MOL      0.186626
     92 H37        -3.5900    3.9450    1.1430 h1        1 MOL      0.096575
     93 H38        -2.8310    3.7540    3.6350 hc        1 MOL      0.051500
     94 H39        -1.2800    5.4910    4.6020 hc        1 MOL      0.009829
     95 H40        -0.6800    5.8130    2.9770 hc        1 MOL      0.009829
     96 H41        -4.5700    5.2240    3.1370 hc        1 MOL      0.078386
     97 H42        -3.5230    5.9860    4.3490 hc        1 MOL      0.078386
     98 H43        -3.5080    6.5550    2.6690 hc        1 MOL      0.078386
     99 H44        -0.3700    3.2810    4.5870 hc        1 MOL      0.079231
    100 H45         0.2750    3.6010    2.9070 hc        1 MOL      0.079231
    101 H46         0.7800    4.5910    4.2250 hc        1 MOL      0.079231
    102 N10        -2.3000    1.9080    1.1100 n         1 MOL     -0.469105
    103 C32        -1.7270    0.6500    0.5550 c3        1 MOL      0.282234
    104 C33        -2.8180   -0.3260    0.0280 c         1 MOL      0.254442
    105 O16        -2.7720   -1.5010    0.2560 o         1 MOL     -0.433562
    106 C34        -0.8440   -0.0360    1.6270 c3        1 MOL      0.057158
    107 C35         0.1290   -1.1960    1.1280 c         1 MOL      0.780396
    108 O17         0.2320   -1.4240   -0.1260 o         1 MOL     -0.741899
    109 O18         0.8900   -1.7250    1.9970 o         1 MOL     -0.741899
    110 H47        -3.1980    1.8590    1.5580 hn        1 MOL      0.280620
    111 H48        -1.1100    0.8980   -0.3030 h1        1 MOL     -0.018949
    112 H49        -1.3760   -0.3810    2.5140 hc        1 MOL     -0.028320
    113 H50        -0.2590    0.8010    2.0100 hc        1 MOL     -0.028320
    114 N11        -3.8990    0.1140   -0.6350 n         1 MOL     -0.369982
    115 C36        -5.0770   -0.6610   -1.0090 c3        1 MOL      0.173501
    116 C37        -5.6680   -1.4380    0.1410 c         1 MOL      0.183682
    117 O19        -5.8800   -0.7890    1.1940 o         1 MOL     -0.500062
    118 C38        -6.0790    0.4000   -1.5330 c3        1 MOL     -0.156204
    119 C39        -7.3150   -0.2190   -2.2160 ca        1 MOL      0.097770
    120 C40        -7.3310   -0.4380   -3.6620 ca        1 MOL     -0.219347
    121 C41        -8.4290   -0.6270   -1.4460 ca        1 MOL     -0.219347
    122 C42        -8.4680   -1.1220   -4.1940 ca        1 MOL     -0.055805
    123 C43        -9.4750   -1.3320   -2.0260 ca        1 MOL     -0.055805
    124 C44        -9.4160   -1.6830   -3.3900 ca        1 MOL     -0.132575
    125 H51        -3.8400    1.0880   -0.9110 hn        1 MOL      0.259290
    126 H52        -4.7710   -1.3300   -1.8080 h1        1 MOL     -0.026360
    127 H53        -5.5470    1.1220   -2.1370 hc        1 MOL      0.086116
    128 H54        -6.3280    1.0330   -0.6850 hc        1 MOL      0.086116
    129 H55        -6.4880   -0.0790   -4.2400 ha        1 MOL      0.140143
    130 H56        -8.3530   -0.6910   -0.3650 ha        1 MOL      0.140143
    131 H57        -8.5440   -1.4020   -5.2350 ha        1 MOL      0.093291
    132 H58       -10.2450   -1.7550   -1.3930 ha        1 MOL      0.093291
    133 H59       -10.3000   -2.1650   -3.8000 ha        1 MOL      0.098237
    134 N12        -6.0040   -2.7710   -0.0020 n         1 MOL      0.233132
    135 C45        -6.6910   -3.4370    1.0780 c3        1 MOL     -0.013078
    136 C46        -5.8520   -3.6920    2.3090 c         1 MOL      0.250022
    137 O20        -6.3550   -3.7710    3.4540 o         1 MOL     -0.510334
    138 C47        -7.2130   -4.6970    0.4960 c3        1 MOL     -0.046172
    139 C48        -6.3090   -4.9450   -0.7100 c3        1 MOL     -0.038635
    140 C49        -5.9370   -3.5790   -1.2180 c3        1 MOL     -0.141552
    141 H60        -7.5730   -2.8720    1.3750 h1        1 MOL      0.064515
    142 H61        -7.2510   -5.5940    1.1070 hc        1 MOL      0.035261
    143 H62        -8.2330   -4.5420    0.1360 hc        1 MOL      0.035261
    144 H63        -5.3690   -5.4510   -0.5040 hc        1 MOL      0.024782
    145 H64        -6.8820   -5.4030   -1.5240 hc        1 MOL      0.024782
    146 H65        -4.9380   -3.6260   -1.6350 h1        1 MOL      0.074056
    147 H66        -6.7640   -3.2580   -1.8510 h1        1 MOL      0.074056
    148 N13        -4.5140   -3.6200    2.2400 n         1 MOL      0.067007
    149 C50        -3.5910   -3.8210    3.3060 c3        1 MOL     -0.403903
    150 C51        -3.6620   -2.7220    4.4160 c         1 MOL      0.558352
    151 O21        -3.4390   -2.9980    5.6190 o         1 MOL     -0.550162
    152 C52        -2.1760   -3.9120    2.7140 c3        1 MOL      0.038161
    153 C53        -1.9280   -5.0090    1.6250 c3        1 MOL     -0.216907
    154 C54        -0.5890   -4.9100    0.9130 c         1 MOL      0.855091
    155 O22        -0.5160   -4.2850   -0.1330 o         1 MOL     -0.759318
    156 O23         0.3230   -5.6720    1.2730 o         1 MOL     -0.759318
    157 H67        -4.0640   -3.5680    1.3460 hn        1 MOL      0.103499
    158 H68        -3.8280   -4.7730    3.7710 h1        1 MOL      0.171732
    159 H69        -1.3530   -4.0160    3.4100 hc        1 MOL      0.056684
    160 H70        -1.8750   -2.9750    2.2450 hc        1 MOL      0.056684
    161 H71        -2.6490   -4.9370    0.8090 hc        1 MOL      0.029365
    162 H72        -2.0760   -6.0030    2.0570 hc        1 MOL      0.029365
    163 N14        -4.1300   -1.5210    4.0480 n         1 MOL     -0.190342
    164 C55        -4.3470   -0.4350    5.0140 c3        1 MOL     -0.415636
    165 H73        -4.8980   -0.8180    5.8730 h1        1 MOL      0.143166
    166 H74        -3.3840   -0.0450    5.3450 h1        1 MOL      0.143166
    167 H75        -4.9210    0.3630    4.5420 h1        1 MOL      0.143166
    168 H76        -4.2610   -1.3060    3.0740 hn        1 MOL      0.283208
    169 Ca1         0.9530   -3.2280   -2.0420 Ca        1 MOL      1.749667
    170 O24        -1.7440   -2.2980   -2.2770 oh        1 MOL     -0.821156
    171 H77        -1.9170   -2.1610   -1.3470 ho        1 MOL      0.401442
    172 H78        -1.8690   -1.4410   -2.6750 ho        1 MOL      0.401442
    173 O25         0.8900   -5.7810   -2.8340 oh        1 MOL     -0.821156
    174 H79         0.4380   -6.6220   -2.7430 ho        1 MOL      0.401442
    175 H80         1.7110   -6.0040   -3.2880 ho        1 MOL      0.401442
    176 O26         2.3610   -4.1920   -0.0050 oh        1 MOL     -0.821156
    177 H81         1.7190   -4.7580    0.4360 ho        1 MOL      0.401442
    178 H82         2.6040   -3.5460    0.6630 ho        1 MOL      0.401442
    179 O27         0.0780   -2.9600   -4.4060 oh        1 MOL     -0.821156
    180 H83        -0.0840   -2.1960   -4.9560 ho        1 MOL      0.401442
    181 H84         0.5820   -3.5600   -4.9610 ho        1 MOL      0.401442
@<TRIPOS>BOND
     1    1    2 1   
     2    1    4 1   
     3    1    5 1   
     4    1    6 1   
     5    2    3 2   
     6    2    7 1   
     7    7    8 1   
     8    7   15 1   
     9    8    9 1   
    10    8   11 1   
    11    8   16 1   
    12    9   10 2   
    13    9   19 1   
    14   11   12 1   
    15   11   17 1   
    16   11   18 1   
    17   12   13 1   
    18   12   14 1   
    19   19   20 1   
    20   19   24 1   
    21   20   21 1   
    22   20   23 1   
    23   20   25 1   
    24   21   22 2   
    25   21   29 1   
    26   23   26 1   
    27   23   27 1   
    28   23   28 1   
    29   29   30 1   
    30   29   37 1   
    31   30   31 1   
    32   30   33 1   
    33   30   38 1   
    34   31   32 2   
    35   31   41 1   
    36   33   34 1   
    37   33   39 1   
    38   33   40 1   
    39   34   35 1   
    40   34   36 1   
    41   41   42 1   
    42   41   45 1   
    43   42   43 1   
    44   42   46 1   
    45   42   47 1   
    46   43   44 2   
    47   43   48 1   
    48   48   49 1   
    49   48   56 1   
    50   49   50 1   
    51   49   52 1   
    52   49   57 1   
    53   50   51 2   
    54   50   62 1   
    55   52   53 1   
    56   52   58 1   
    57   52   59 1   
    58   53   54 1   
    59   53   55 2   
    60   54   60 1   
    61   54   61 1   
    62   62   63 1   
    63   62   66 1   
    64   63   64 1   
    65   63   67 1   
    66   63   68 1   
    67   64   65 2   
    68   64   69 1   
    69   69   70 1   
    70   69   76 1   
    71   70   71 1   
    72   70   73 1   
    73   70   77 1   
    74   71   72 2   
    75   71   83 1   
    76   73   74 1   
    77   73   75 1   
    78   73   78 1   
    79   74   80 1   
    80   74   81 1   
    81   74   82 1   
    82   75   79 1   
    83   83   84 1   
    84   83   91 1   
    85   84   85 1   
    86   84   87 1   
    87   84   92 1   
    88   85   86 2   
    89   85  102 1   
    90   87   88 1   
    91   87   89 1   
    92   87   93 1   
    93   88   90 1   
    94   88   94 1   
    95   88   95 1   
    96   89   96 1   
    97   89   97 1   
    98   89   98 1   
    99   90   99 1   
   100   90  100 1   
   101   90  101 1   
   102  102  103 1   
   103  102  110 1   
   104  103  104 1   
   105  103  106 1   
   106  103  111 1   
   107  104  105 2   
   108  104  114 1   
   109  106  107 1   
   110  106  112 1   
   111  106  113 1   
   112  107  108 1   
   113  107  109 1   
   114  114  115 1   
   115  114  125 1   
   116  115  116 1   
   117  115  118 1   
   118  115  126 1   
   119  116  117 2   
   120  116  134 1   
   121  118  119 1   
   122  118  127 1   
   123  118  128 1   
   124  119  120 ar  
   125  119  121 ar  
   126  120  122 ar  
   127  120  129 1   
   128  121  123 ar  
   129  121  130 1   
   130  122  124 ar  
   131  122  131 1   
   132  123  124 ar  
   133  123  132 1   
   134  124  133 1   
   135  134  135 1   
   136  134  140 1   
   137  135  136 1   
   138  135  138 1   
   139  135  141 1   
   140  136  137 2   
   141  136  148 1   
   142  138  139 1   
   143  138  142 1   
   144  138  143 1   
   145  139  140 1   
   146  139  144 1   
   147  139  145 1   
   148  140  146 1   
   149  140  147 1   
   150  148  149 1   
   151  148  157 1   
   152  149  150 1   
   153  149  152 1   
   154  149  158 1   
   155  150  151 2   
   156  150  163 1   
   157  152  153 1   
   158  152  159 1   
   159  152  160 1   
   160  153  154 1   
   161  153  161 1   
   162  153  162 1   
   163  154  155 1   
   164  154  156 1   
   165  163  164 1   
   166  163  168 1   
   167  164  165 1   
   168  164  166 1   
   169  164  167 1   
   170  170  171 1   
   171  170  172 1   
   172  173  174 1   
   173  173  175 1   
   174  176  177 1   
   175  176  178 1   
   176  179  180 1   
   177  179  181 1   
@<TRIPOS>SUBSTRUCTURE
     1 MOL         1 TEMP              0 ****  ****    0 ROOT
