@<TRIPOS>MOLECULE
MOL
  189   185     1     0     0
SMALL
resp


@<TRIPOS>ATOM
      1 C1          5.6430    3.9380   -3.8520 c3        1 MOL     -0.443108
      2 C2          6.1220    3.6050   -2.4120 c         1 MOL      0.843070
      3 O1          5.3540    3.5510   -1.4530 o         1 MOL     -0.593384
      4 H1          4.5570    3.8540   -3.9010 hc        1 MOL      0.100484
      5 H2          5.9410    4.9540   -4.1090 hc        1 MOL      0.100484
      6 H3          6.0920    3.2370   -4.5560 hc        1 MOL      0.100484
      7 N1          7.3350    3.0090   -2.2630 n         1 MOL     -0.608892
      8 C3          7.6870    1.8960   -1.3700 c3        1 MOL      0.071635
      9 C4          6.5610    0.8110   -1.2810 c         1 MOL      0.458914
     10 O2          5.9680    0.5550   -0.2060 o         1 MOL     -0.443515
     11 C5          8.2910    2.3620   -0.1020 c3        1 MOL      0.003359
     12 C6          7.6440    3.5500    0.5900 c         1 MOL      0.564646
     13 O3          6.5150    3.4290    1.2230 o         1 MOL     -0.697811
     14 O4          8.1820    4.6970    0.5470 o         1 MOL     -0.697811
     15 H4          8.0330    3.2250   -2.9680 hn        1 MOL      0.277476
     16 H5          8.5760    1.4120   -1.7770 h1        1 MOL      0.072368
     17 H6          9.3650    2.5330   -0.1740 hc        1 MOL      0.019543
     18 H7          8.2760    1.6130    0.6830 hc        1 MOL      0.019543
     19 N2          6.2670    0.1470   -2.4650 n         1 MOL     -0.650235
     20 C7          5.5410   -1.0920   -2.6840 c3        1 MOL      0.407048
     21 C8          6.1800   -2.2870   -2.0330 c         1 MOL      0.313228
     22 O5          6.2100   -3.3380   -2.6270 o         1 MOL     -0.515309
     23 C9          4.0390   -0.9870   -2.4180 c3        1 MOL      0.254897
     24 C10         3.2320   -2.2380   -2.7950 c3        1 MOL      0.106589
     25 C11         3.4250    0.2230   -3.1800 c3        1 MOL     -0.136258
     26 C12         3.3950   -2.8230   -4.1680 c3        1 MOL     -0.460841
     27 H8          6.7690    0.4820   -3.2750 hn        1 MOL      0.297350
     28 H9          5.5920   -1.4090   -3.7290 h1        1 MOL     -0.050510
     29 H10         3.8080   -0.8760   -1.3650 hc        1 MOL     -0.216327
     30 H11         2.1800   -2.0520   -2.5580 hc        1 MOL      0.038948
     31 H12         3.4730   -3.0540   -2.1000 hc        1 MOL      0.038948
     32 H13         3.6110    0.1570   -4.2560 hc        1 MOL      0.019290
     33 H14         2.3550    0.3130   -2.9890 hc        1 MOL      0.019290
     34 H15         3.8000    1.1780   -2.8130 hc        1 MOL      0.019290
     35 H16         4.3860   -3.2580   -4.2640 hc        1 MOL      0.096487
     36 H17         2.7000   -3.6640   -4.1560 hc        1 MOL      0.096487
     37 H18         3.1080   -2.1550   -4.9830 hc        1 MOL      0.096487
     38 N3          6.6300   -2.0940   -0.7400 n         1 MOL     -0.182634
     39 C13         7.3190   -3.2160   -0.0260 c3        1 MOL      0.065932
     40 C14         6.4780   -4.5860    0.2170 c         1 MOL      0.577343
     41 O6          7.0720   -5.5880   -0.1010 o         1 MOL     -0.579770
     42 C15         7.9220   -2.8300    1.2740 c3        1 MOL     -0.341002
     43 C16         8.9320   -1.7220    1.0680 c         1 MOL      0.766529
     44 O7         10.0770   -2.0590    0.7040 o         1 MOL     -0.720131
     45 O8          8.6000   -0.5480    1.2640 o         1 MOL     -0.720131
     46 H19         6.5130   -1.2210   -0.2330 hn        1 MOL      0.158496
     47 H20         8.1610   -3.5390   -0.6350 h1        1 MOL      0.061340
     48 H21         8.4160   -3.6980    1.6960 hc        1 MOL      0.096582
     49 H22         7.1800   -2.4280    1.9800 hc        1 MOL      0.096582
     50 N4          5.2180   -4.6820    0.7040 n         1 MOL     -0.542015
     51 C17         4.4660   -3.5240    1.1510 c3        1 MOL      0.082595
     52 C18         4.5590   -3.2250    2.6380 c         1 MOL      0.552746
     53 O9          5.5450   -3.5230    3.2470 o         1 MOL     -0.542489
     54 H23         4.7350   -5.5720    0.6920 hn        1 MOL      0.305757
     55 H24         3.4440   -3.6660    0.8030 h1        1 MOL      0.051879
     56 H25         4.8460   -2.6520    0.6050 h1        1 MOL      0.051879
     57 N5          3.5280   -2.6010    3.2350 n         1 MOL     -0.524422
     58 C19         2.3510   -1.9440    2.6870 c3        1 MOL      0.332093
     59 C20         2.5560   -1.0850    1.3990 c         1 MOL      0.025253
     60 O10         3.5690   -0.4970    1.1100 o         1 MOL     -0.364836
     61 C21         1.7920   -1.0570    3.7830 c3        1 MOL     -0.620719
     62 C22         2.7600    0.0470    4.3050 c         1 MOL      0.836142
     63 O11         2.9670    1.0640    3.5700 o         1 MOL     -0.672443
     64 O12         3.4340   -0.0530    5.3520 o         1 MOL     -0.672443
     65 H26         3.7350   -2.2900    4.1730 hn        1 MOL      0.300752
     66 H27         1.7100   -2.7730    2.3780 h1        1 MOL      0.013558
     67 H28         1.4730   -1.7080    4.6000 hc        1 MOL      0.139205
     68 H29         0.8760   -0.6010    3.4220 hc        1 MOL      0.139205
     69 N6          1.5600   -0.9650    0.5030 n         1 MOL     -0.170089
     70 C23         0.1440   -1.3670    0.7030 c3        1 MOL     -0.089766
     71 C24        -0.1990   -2.7540    0.2200 c         1 MOL      0.581093
     72 O13         0.5020   -3.4250   -0.5280 o         1 MOL     -0.528041
     73 H30         1.7730   -0.4210   -0.3280 hn        1 MOL      0.258107
     74 H31        -0.4810   -0.6820    0.1380 h1        1 MOL      0.099494
     75 H32        -0.2100   -1.1540    1.7100 h1        1 MOL      0.099494
     76 N7         -1.3850   -3.2330    0.6920 n         1 MOL     -0.483140
     77 C25        -2.0340   -4.4810    0.2330 c3        1 MOL      0.030876
     78 C26        -2.6860   -4.3820   -1.1570 c         1 MOL      0.337743
     79 O14        -2.9750   -5.4260   -1.7410 o         1 MOL     -0.520195
     80 C27        -3.0100   -4.8840    1.3580 c3        1 MOL     -0.172014
     81 C28        -4.2970   -3.9940    1.3960 c3        1 MOL      0.092424
     82 C29        -5.1540   -4.3610    2.5390 c         1 MOL      0.617138
     83 N8         -6.2320   -3.6460    2.6840 n         1 MOL     -0.805703
     84 O15        -4.9100   -5.1860    3.3750 o         1 MOL     -0.578498
     85 H33        -1.9140   -2.5790    1.2500 hn        1 MOL      0.244299
     86 H34        -1.1780   -5.1600    0.1250 h1        1 MOL      0.130900
     87 H35        -2.6050   -4.7910    2.3660 hc        1 MOL      0.063688
     88 H36        -3.3480   -5.9160    1.2530 hc        1 MOL      0.063688
     89 H37        -4.8270   -4.0350    0.4540 hc        1 MOL      0.010472
     90 H38        -4.1190   -2.9330    1.5640 hc        1 MOL      0.010472
     91 H39        -6.5270   -2.9330    2.0210 hn        1 MOL      0.352742
     92 H40        -6.7160   -3.8330    3.5420 hn        1 MOL      0.352742
     93 N9         -2.7650   -3.1970   -1.7260 n         1 MOL      0.057928
     94 C30        -3.1980   -2.9630   -3.0470 c3        1 MOL     -0.164697
     95 C31        -4.6780   -2.5050   -3.2740 c         1 MOL      0.484852
     96 O16        -5.1630   -2.5920   -4.3900 o         1 MOL     -0.553597
     97 C32        -2.0690   -2.1570   -3.9040 c3        1 MOL      0.088377
     98 C33        -0.7440   -2.9760   -3.9540 c3        1 MOL     -0.118178
     99 C34        -1.6900   -0.8000   -3.2100 c3        1 MOL     -0.118178
    100 H41        -2.4990   -2.4130   -1.1460 hn        1 MOL      0.121597
    101 H42        -3.2500   -3.9630   -3.4760 h1        1 MOL      0.107846
    102 H43        -2.4060   -1.9530   -4.9180 hc        1 MOL      0.037634
    103 H44        -0.2590   -3.1880   -3.0090 hc        1 MOL      0.019877
    104 H45        -0.9930   -4.0010   -4.2570 hc        1 MOL      0.019877
    105 H46        -0.0370   -2.5380   -4.6740 hc        1 MOL      0.019877
    106 H47        -1.4400   -0.9030   -2.1490 hc        1 MOL      0.019877
    107 H48        -0.8860   -0.2560   -3.6960 hc        1 MOL      0.019877
    108 H49        -2.5970   -0.1950   -3.2190 hc        1 MOL      0.019877
    109 N10        -5.3520   -2.0770   -2.2600 n         1 MOL     -0.327162
    110 C35        -6.7660   -1.6930   -2.3930 c3        1 MOL      0.162624
    111 C36        -7.0840   -0.3970   -1.7190 c         1 MOL      0.444604
    112 O17        -8.1640    0.1130   -1.9620 o         1 MOL     -0.549664
    113 C37        -7.6400   -2.8320   -1.9600 c3        1 MOL     -0.384163
    114 C38        -7.8190   -2.8940   -0.4680 c         1 MOL      0.716023
    115 N11        -8.8380   -3.6410   -0.0670 n         1 MOL     -0.847981
    116 O18        -7.0320   -2.4420    0.3610 o         1 MOL     -0.503078
    117 H50        -4.8430   -2.1140   -1.3790 hn        1 MOL      0.178682
    118 H51        -6.9690   -1.5580   -3.4500 h1        1 MOL      0.097913
    119 H52        -7.4120   -3.8030   -2.3960 hc        1 MOL      0.122066
    120 H53        -8.6560   -2.5670   -2.2510 hc        1 MOL      0.122066
    121 H54        -9.4870   -3.9300   -0.7840 hn        1 MOL      0.384496
    122 H55        -9.0490   -3.8330    0.9080 hn        1 MOL      0.384496
    123 N12        -6.2400    0.2430   -0.9310 n         1 MOL     -0.360465
    124 C39        -6.4640    1.4840   -0.2210 c3        1 MOL      0.317179
    125 C40        -5.1190    2.2740   -0.0040 c         1 MOL      0.211597
    126 O19        -4.0960    1.6420   -0.0440 o         1 MOL     -0.375205
    127 C41        -7.1090    1.3190    1.1510 c3        1 MOL     -0.064119
    128 C42        -8.6200    1.0100    1.1390 ca        1 MOL     -0.023628
    129 C43        -9.1390   -0.1320    1.7250 ca        1 MOL     -0.059727
    130 C44        -9.4490    2.0020    0.7020 ca        1 MOL     -0.059727
    131 C45       -10.5750   -0.2900    1.9580 ca        1 MOL     -0.310287
    132 C46       -10.8080    1.8380    0.7790 ca        1 MOL     -0.310287
    133 C47       -11.3810    0.7240    1.4800 ca        1 MOL      0.350753
    134 O20       -12.7200    0.8130    1.7480 oh        1 MOL     -0.507079
    135 H56        -5.3110   -0.1370   -0.8100 hn        1 MOL      0.138730
    136 H57        -7.1150    2.0990   -0.8440 h1        1 MOL     -0.016795
    137 H58        -7.0170    2.2710    1.6630 hc        1 MOL      0.059879
    138 H59        -6.5820    0.6270    1.8100 hc        1 MOL      0.059879
    139 H60        -8.4010   -0.8440    2.0600 ha        1 MOL      0.096721
    140 H61        -9.1050    2.9390    0.2740 ha        1 MOL      0.096721
    141 H62       -11.0450   -1.1330    2.4440 ha        1 MOL      0.147245
    142 H63       -11.4500    2.6660    0.5080 ha        1 MOL      0.147245
    143 H64       -13.0850    1.6000    1.3320 ho        1 MOL      0.352802
    144 N13        -5.1950    3.5290    0.3500 n         1 MOL     -0.311677
    145 C48        -4.1170    4.4080    0.6200 c3        1 MOL      0.027161
    146 C49        -2.9410    4.6330   -0.3760 c         1 MOL      0.256242
    147 O21        -2.4290    5.7400   -0.3990 o         1 MOL     -0.477076
    148 C50        -3.4530    3.9750    1.9610 c3        1 MOL      0.385386
    149 C51        -4.4650    3.7860    3.0440 c3        1 MOL     -0.213562
    150 C52        -3.8710    3.6420    4.4720 c         1 MOL      0.739670
    151 O22        -4.6450    3.2900    5.4200 o         1 MOL     -0.739240
    152 O23        -2.6870    3.9300    4.6900 o         1 MOL     -0.739240
    153 H65        -6.1260    3.9310    0.3800 hn        1 MOL      0.255802
    154 H66        -4.5760    5.3950    0.6570 h1        1 MOL      0.050059
    155 H67        -2.8660    4.8500    2.2550 hc        1 MOL     -0.043124
    156 H68        -2.8250    3.0860    1.8810 hc        1 MOL     -0.043124
    157 H69        -5.0400    2.8840    2.8300 hc        1 MOL     -0.036263
    158 H70        -5.2010    4.5810    3.1380 hc        1 MOL     -0.036263
    159 N14        -2.3430    3.6500   -1.0810 n         1 MOL     -0.192936
    160 C53        -1.1310    3.9460   -1.9450 c3        1 MOL     -0.212791
    161 C54        -1.4990    4.6830   -3.2450 c         1 MOL      0.530516
    162 O24        -0.6550    5.2310   -3.9390 o         1 MOL     -0.552056
    163 C55        -0.3050    2.7120   -2.1950 c3        1 MOL     -0.126801
    164 C56         0.1430    1.9450   -0.9080 c3        1 MOL      0.464906
    165 C57         1.1310    2.6480   -0.0060 c         1 MOL      0.500615
    166 O25         2.1790    2.0680    0.2550 o         1 MOL     -0.621280
    167 O26         1.1190    3.8460    0.2280 o         1 MOL     -0.621280
    168 H71        -2.6690    2.6940   -1.0170 hn        1 MOL      0.182591
    169 H72        -0.4530    4.6440   -1.4600 h1        1 MOL      0.182501
    170 H73         0.5920    3.0180   -2.7300 hc        1 MOL      0.051047
    171 H74        -0.9160    2.1020   -2.8610 hc        1 MOL      0.051047
    172 H75         0.5910    0.9970   -1.2240 hc        1 MOL     -0.173108
    173 H76        -0.7600    1.5880   -0.4120 hc        1 MOL     -0.173108
    174 N15        -2.7410    4.6940   -3.6980 n         1 MOL     -0.205503
    175 C58        -3.2310    5.4590   -4.8730 c3        1 MOL     -0.343199
    176 H77        -4.2860    5.2400   -5.0340 h1        1 MOL      0.128383
    177 H78        -3.1060    6.5270   -4.6900 h1        1 MOL      0.128383
    178 H79        -2.6610    5.1730   -5.7570 h1        1 MOL      0.128383
    179 H80        -3.4030    4.2180   -3.1110 hn        1 MOL      0.189617
    180 Ca1         4.4690    1.9090    1.5180 Ca        1 MOL      1.695355
    181 O27         3.0390    4.1970    2.0980 oh        1 MOL     -0.835607
    182 H81         2.4410    4.0240    1.3770 ho        1 MOL      0.395747
    183 H82         2.8610    5.1040    2.3470 ho        1 MOL      0.395747
    184 O28         5.1950    3.3630    3.8800 oh        1 MOL     -0.835607
    185 H83         5.4190    4.1230    3.3400 ho        1 MOL      0.395747
    186 H84         5.9540    3.2460    4.4560 ho        1 MOL      0.395747
    187 O29         6.3040    0.0730    2.5690 oh        1 MOL     -0.835607
    188 H85         6.5590   -0.3180    3.4090 ho        1 MOL      0.395747
    189 H86         7.0450   -0.0880    1.9930 ho        1 MOL      0.395747
@<TRIPOS>BOND
     1    1    2 1   
     2    1    4 1   
     3    1    5 1   
     4    1    6 1   
     5    2    3 2   
     6    2    7 1   
     7    7    8 1   
     8    7   15 1   
     9    8    9 1   
    10    8   11 1   
    11    8   16 1   
    12    9   10 2   
    13    9   19 1   
    14   11   12 1   
    15   11   17 1   
    16   11   18 1   
    17   12   13 1   
    18   12   14 1   
    19   19   20 1   
    20   19   27 1   
    21   20   21 1   
    22   20   23 1   
    23   20   28 1   
    24   21   22 2   
    25   21   38 1   
    26   23   24 1   
    27   23   25 1   
    28   23   29 1   
    29   24   26 1   
    30   24   30 1   
    31   24   31 1   
    32   25   32 1   
    33   25   33 1   
    34   25   34 1   
    35   26   35 1   
    36   26   36 1   
    37   26   37 1   
    38   38   39 1   
    39   38   46 1   
    40   39   40 1   
    41   39   42 1   
    42   39   47 1   
    43   40   41 2   
    44   40   50 1   
    45   42   43 1   
    46   42   48 1   
    47   42   49 1   
    48   43   44 1   
    49   43   45 1   
    50   50   51 1   
    51   50   54 1   
    52   51   52 1   
    53   51   55 1   
    54   51   56 1   
    55   52   53 2   
    56   52   57 1   
    57   57   58 1   
    58   57   65 1   
    59   58   59 1   
    60   58   61 1   
    61   58   66 1   
    62   59   60 2   
    63   59   69 1   
    64   61   62 1   
    65   61   67 1   
    66   61   68 1   
    67   62   63 1   
    68   62   64 1   
    69   69   70 1   
    70   69   73 1   
    71   70   71 1   
    72   70   74 1   
    73   70   75 1   
    74   71   72 2   
    75   71   76 1   
    76   76   77 1   
    77   76   85 1   
    78   77   78 1   
    79   77   80 1   
    80   77   86 1   
    81   78   79 2   
    82   78   93 1   
    83   80   81 1   
    84   80   87 1   
    85   80   88 1   
    86   81   82 1   
    87   81   89 1   
    88   81   90 1   
    89   82   83 1   
    90   82   84 2   
    91   83   91 1   
    92   83   92 1   
    93   93   94 1   
    94   93  100 1   
    95   94   95 1   
    96   94   97 1   
    97   94  101 1   
    98   95   96 2   
    99   95  109 1   
   100   97   98 1   
   101   97   99 1   
   102   97  102 1   
   103   98  103 1   
   104   98  104 1   
   105   98  105 1   
   106   99  106 1   
   107   99  107 1   
   108   99  108 1   
   109  109  110 1   
   110  109  117 1   
   111  110  111 1   
   112  110  113 1   
   113  110  118 1   
   114  111  112 2   
   115  111  123 1   
   116  113  114 1   
   117  113  119 1   
   118  113  120 1   
   119  114  115 1   
   120  114  116 2   
   121  115  121 1   
   122  115  122 1   
   123  123  124 1   
   124  123  135 1   
   125  124  125 1   
   126  124  127 1   
   127  124  136 1   
   128  125  126 2   
   129  125  144 1   
   130  127  128 1   
   131  127  137 1   
   132  127  138 1   
   133  128  129 ar  
   134  128  130 ar  
   135  129  131 ar  
   136  129  139 1   
   137  130  132 ar  
   138  130  140 1   
   139  131  133 ar  
   140  131  141 1   
   141  132  133 ar  
   142  132  142 1   
   143  133  134 1   
   144  134  143 1   
   145  144  145 1   
   146  144  153 1   
   147  145  146 1   
   148  145  148 1   
   149  145  154 1   
   150  146  147 2   
   151  146  159 1   
   152  148  149 1   
   153  148  155 1   
   154  148  156 1   
   155  149  150 1   
   156  149  157 1   
   157  149  158 1   
   158  150  151 1   
   159  150  152 1   
   160  159  160 1   
   161  159  168 1   
   162  160  161 1   
   163  160  163 1   
   164  160  169 1   
   165  161  162 2   
   166  161  174 1   
   167  163  164 1   
   168  163  170 1   
   169  163  171 1   
   170  164  165 1   
   171  164  172 1   
   172  164  173 1   
   173  165  166 1   
   174  165  167 1   
   175  174  175 1   
   176  174  179 1   
   177  175  176 1   
   178  175  177 1   
   179  175  178 1   
   180  181  182 1   
   181  181  183 1   
   182  184  185 1   
   183  184  186 1   
   184  187  188 1   
   185  187  189 1   
@<TRIPOS>SUBSTRUCTURE
     1 MOL         1 TEMP              0 ****  ****    0 ROOT
