@<TRIPOS>MOLECULE
MOL
  185   180     1     0     0
SMALL
resp


@<TRIPOS>ATOM
      1 C1         -5.5250    1.0340   -3.4780 c3        1 MOL     -0.436601
      2 C2         -6.2820    1.2230   -2.1310 c         1 MOL      0.659457
      3 O1         -5.7630    1.2650   -1.0620 o         1 MOL     -0.413998
      4 H1         -6.1150    0.3990   -4.1380 hc        1 MOL      0.116847
      5 H2         -5.3720    2.0050   -3.9490 hc        1 MOL      0.116847
      6 H3         -4.5590    0.5640   -3.2890 hc        1 MOL      0.116847
      7 N1         -7.6120    1.4040   -2.2660 n         1 MOL     -0.720819
      8 C3         -8.5870    1.5950   -1.1600 c3        1 MOL      0.349991
      9 C4         -8.5900    0.4170   -0.0800 c         1 MOL      0.245319
     10 O2         -9.1300    0.6350    1.0290 o         1 MOL     -0.488940
     11 C5         -8.5380    3.1200   -0.7050 c3        1 MOL     -0.365930
     12 C6         -8.3600    4.2120   -1.7790 c         1 MOL      0.804775
     13 O3         -8.0690    5.3970   -1.3590 o         1 MOL     -0.680309
     14 O4         -8.6030    4.0190   -3.0060 o         1 MOL     -0.680309
     15 H4         -7.8770    1.5560   -3.2300 hn        1 MOL      0.350010
     16 H5         -9.5130    1.3880   -1.6920 h1        1 MOL      0.010146
     17 H6         -7.5930    3.0980   -0.1510 hc        1 MOL      0.085314
     18 H7         -9.4390    3.2790   -0.1150 hc        1 MOL      0.085314
     19 N2         -8.0360   -0.7260   -0.4050 n         1 MOL     -0.082320
     20 C7         -8.0250   -1.8900    0.5270 c3        1 MOL      0.132988
     21 C8         -6.5870   -2.0960    1.0780 c         1 MOL      0.546444
     22 O5         -6.2100   -3.1350    1.7360 o         1 MOL     -0.553904
     23 C9         -8.4270   -3.1560   -0.1740 c3        1 MOL     -0.386384
     24 C10        -9.8780   -3.1050   -0.7040 c3        1 MOL      0.164038
     25 C11       -10.3410   -4.4470   -1.4470 c3        1 MOL     -0.238533
     26 C12       -11.9010   -4.4610   -1.6610 c3        1 MOL      0.047697
     27 N3        -12.6130   -5.1670   -0.5900 n4        1 MOL     -0.273894
     28 H8         -7.7370   -0.9080   -1.3480 hn        1 MOL      0.136624
     29 H9         -8.6410   -1.6040    1.3740 h1        1 MOL      0.063220
     30 H10        -8.3100   -3.9380    0.5820 hc        1 MOL      0.108065
     31 H11        -7.7540   -3.4330   -0.9860 hc        1 MOL      0.108065
     32 H12        -9.9370   -2.1710   -1.2640 hc        1 MOL     -0.001609
     33 H13       -10.6170   -2.7460    0.0110 hc        1 MOL     -0.001609
     34 H14        -9.9940   -5.3210   -0.9000 hc        1 MOL      0.105043
     35 H15        -9.8670   -4.3570   -2.4270 hc        1 MOL      0.105043
     36 H16       -12.1630   -4.9650   -2.5960 hx        1 MOL      0.086050
     37 H17       -12.2130   -3.4270   -1.7780 hx        1 MOL      0.086050
     38 H18       -12.5490   -6.1660   -0.5550 hn        1 MOL      0.290592
     39 H19       -12.3010   -4.8410    0.3090 hn        1 MOL      0.290592
     40 H20       -13.5980   -4.9820   -0.6610 hn        1 MOL      0.290592
     41 N4         -5.6520   -1.1710    0.8110 n         1 MOL     -0.367692
     42 C13        -4.2330   -1.5130    0.8650 c3        1 MOL     -0.231165
     43 C14        -3.7090   -1.8680    2.3490 c         1 MOL      0.541163
     44 O6         -4.2660   -1.2870    3.2790 o         1 MOL     -0.479234
     45 C15        -3.3780   -0.3200    0.4280 c3        1 MOL     -0.036985
     46 C16        -1.9070   -0.7350    0.2960 c         1 MOL      0.605907
     47 O7         -1.0240   -0.4350    1.1530 o         1 MOL     -0.712057
     48 O8         -1.5350   -1.2220   -0.7830 o         1 MOL     -0.712057
     49 H21        -5.8510   -0.3840    0.2070 hn        1 MOL      0.211403
     50 H22        -4.0970   -2.3590    0.1880 h1        1 MOL      0.110635
     51 H23        -3.4640    0.5590    1.0640 hc        1 MOL      0.100226
     52 H24        -3.7330   -0.0090   -0.5470 hc        1 MOL      0.100226
     53 N5         -2.7430   -2.8010    2.5660 n         1 MOL     -0.255858
     54 C17        -2.3220   -3.3420    3.8720 c3        1 MOL     -0.188845
     55 C18        -1.2100   -2.6180    4.6550 c         1 MOL      0.512727
     56 O9         -1.0590   -2.7500    5.8620 o         1 MOL     -0.546324
     57 H25        -2.5020   -3.2660    1.6960 hn        1 MOL      0.211915
     58 H26        -2.0790   -4.4040    3.8760 h1        1 MOL      0.117646
     59 H27        -3.1820   -3.2420    4.5370 h1        1 MOL      0.117646
     60 N6         -0.4470   -1.7260    4.0230 n         1 MOL     -0.277430
     61 C19         0.4110   -0.7160    4.6000 c3        1 MOL     -0.080309
     62 C20         0.0120    0.7630    4.2300 c         1 MOL      0.502400
     63 O10         0.7200    1.7730    4.4150 o         1 MOL     -0.553804
     64 C21         1.9230   -0.9840    4.3690 c3        1 MOL     -0.121716
     65 C22         2.3170   -0.6850    2.9610 c         1 MOL      0.727661
     66 N7          3.0790    0.3440    2.7570 n         1 MOL     -0.882927
     67 O11         1.9590   -1.4180    2.0710 o         1 MOL     -0.714382
     68 H28        -0.6020   -1.7210    3.0210 hn        1 MOL      0.270793
     69 H29         0.2820   -0.6550    5.6840 h1        1 MOL      0.141238
     70 H30         2.2740   -1.9810    4.6610 hc        1 MOL      0.057366
     71 H31         2.5070   -0.3150    5.0090 hc        1 MOL      0.057366
     72 H32         3.2540    0.8870    3.5770 hn        1 MOL      0.411627
     73 H33         3.0280    0.7280    1.8180 hn        1 MOL      0.411627
     74 N8         -1.2520    0.9300    3.7860 n         1 MOL     -0.242863
     75 C23        -1.8970    2.2180    3.3210 c3        1 MOL     -0.308848
     76 C24        -1.1860    2.9950    2.1770 c         1 MOL      0.675748
     77 O12        -1.2680    4.2100    2.1790 o         1 MOL     -0.563341
     78 H34        -1.7120    0.0770    3.4930 hn        1 MOL      0.135564
     79 H35        -1.9750    2.8660    4.2070 h1        1 MOL      0.158477
     80 H36        -2.8990    2.0030    2.9600 h1        1 MOL      0.158477
     81 N9         -0.5670    2.2620    1.2610 n         1 MOL     -0.487758
     82 C25        -0.0130    2.7600   -0.0390 c3        1 MOL      0.064211
     83 C26         1.3160    2.0540   -0.3740 c         1 MOL      0.464579
     84 O13         1.5170    0.9090   -0.0600 o         1 MOL     -0.445810
     85 C27        -1.0240    2.5220   -1.1420 c3        1 MOL     -0.007584
     86 C28        -2.0890    3.5640   -1.2270 ca        1 MOL      0.055805
     87 C29        -1.9950    4.6020   -2.1510 ca        1 MOL     -0.168138
     88 C30        -3.3010    3.3650   -0.6050 ca        1 MOL     -0.168138
     89 C31        -3.1540    5.3930   -2.4520 ca        1 MOL     -0.206175
     90 C32        -4.4020    4.1910   -0.7570 ca        1 MOL     -0.206175
     91 C33        -4.3190    5.1950   -1.7190 ca        1 MOL      0.338635
     92 O14        -5.4560    5.9990   -2.0520 oh        1 MOL     -0.546573
     93 H37        -0.5820    1.2590    1.3450 hn        1 MOL      0.309371
     94 H38         0.1640    3.8320    0.0150 h1        1 MOL      0.053560
     95 H39        -1.5180    1.5530   -1.0950 hc        1 MOL      0.000113
     96 H40        -0.4920    2.4680   -2.0970 hc        1 MOL      0.000113
     97 H41        -1.0880    4.5900   -2.7260 ha        1 MOL      0.074526
     98 H42        -3.4130    2.4670   -0.0120 ha        1 MOL      0.074526
     99 H43        -3.1250    6.1700   -3.1990 ha        1 MOL      0.135710
    100 H44        -5.3170    3.9490   -0.2430 ha        1 MOL      0.135710
    101 H45        -6.2030    5.7000   -1.5330 ho        1 MOL      0.393505
    102 N10         2.2280    2.8470   -1.0040 n         1 MOL     -0.422455
    103 C34         3.6470    2.4130   -1.3520 c3        1 MOL      0.011893
    104 C35         4.4540    2.2580   -0.0630 c         1 MOL      0.279677
    105 O15         4.6940    1.1680    0.2800 o         1 MOL     -0.310588
    106 C36         4.4130    3.2130   -2.4440 c3        1 MOL     -0.036639
    107 C37         3.5910    3.3110   -3.8100 c3        1 MOL     -0.076290
    108 C38         5.8900    2.8150   -2.5670 c3        1 MOL     -0.084124
    109 C39         3.5540    1.9800   -4.5030 c3        1 MOL     -0.404379
    110 H46         2.0050    3.7820   -1.3230 hn        1 MOL      0.271736
    111 H47         3.4360    1.4460   -1.8080 h1        1 MOL      0.141993
    112 H48         4.4350    4.2390   -2.0590 hc        1 MOL     -0.013232
    113 H49         3.9370    4.0550   -4.5340 hc        1 MOL      0.084286
    114 H50         2.5340    3.5060   -3.6250 hc        1 MOL      0.084286
    115 H51         6.3960    2.8430   -1.6070 hc        1 MOL      0.046091
    116 H52         5.9340    1.7590   -2.8400 hc        1 MOL      0.046091
    117 H53         6.4090    3.4440   -3.2950 hc        1 MOL      0.046091
    118 H54         4.5220    1.6540   -4.8820 hc        1 MOL      0.111275
    119 H55         3.1760    1.3390   -3.7120 hc        1 MOL      0.111275
    120 H56         2.9320    2.1440   -5.3750 hc        1 MOL      0.111275
    121 N11         4.8150    3.3320    0.6940 n         1 MOL     -0.200738
    122 C40         5.5590    3.2840    1.9420 c3        1 MOL     -0.238958
    123 C41         6.9980    2.6530    1.9580 c         1 MOL      0.682972
    124 O16         7.4910    2.0270    2.9130 o         1 MOL     -0.532638
    125 C42         5.5750    4.6660    2.5650 c3        1 MOL      0.254961
    126 O17         6.2050    5.5240    1.6850 oh        1 MOL     -0.648768
    127 H57         4.4640    4.2420    0.4240 hn        1 MOL      0.233522
    128 H58         4.9850    2.6770    2.6460 h1        1 MOL      0.069692
    129 H59         6.0790    4.5240    3.5220 h1        1 MOL      0.046133
    130 H60         4.5760    5.1160    2.6840 h1        1 MOL      0.046133
    131 H61         5.6760    5.9880    1.0270 ho        1 MOL      0.425254
    132 N12         7.5840    2.6410    0.7110 n         1 MOL     -0.381457
    133 C43         8.8440    1.9130    0.2320 c3        1 MOL      0.176954
    134 C44         8.7210    0.3770    0.3430 c         1 MOL      0.421636
    135 O18         9.7730   -0.2710    0.4730 o         1 MOL     -0.541282
    136 C45        10.0040    2.5780    1.0830 c3        1 MOL     -0.307484
    137 H62         7.2490    3.2870    0.0120 hn        1 MOL      0.170745
    138 H63         8.9950    2.0330   -0.8400 h1        1 MOL      0.045771
    139 H64         9.9140    3.6660    1.0580 hc        1 MOL      0.099193
    140 H65         9.8600    2.3790    2.1420 hc        1 MOL      0.099193
    141 H66        11.0220    2.3550    0.7870 hc        1 MOL      0.099193
    142 N13         7.5070   -0.1710    0.5070 n         1 MOL     -0.179727
    143 C46         7.3180   -1.6060    0.6480 c3        1 MOL      0.181919
    144 C47         6.8720   -2.2640   -0.6680 c         1 MOL      0.474101
    145 O19         6.3820   -1.5780   -1.6030 o         1 MOL     -0.493585
    146 C48         6.2770   -1.8600    1.6400 c3        1 MOL     -0.177076
    147 H67         6.6330    0.3050    0.3640 hn        1 MOL      0.012087
    148 H68         8.1750   -2.1070    1.1140 h1        1 MOL      0.053806
    149 H69         5.3560   -1.3720    1.3260 hc        1 MOL      0.065544
    150 H70         6.0860   -2.9330    1.6920 hc        1 MOL      0.065544
    151 H71         6.6490   -1.5820    2.6230 hc        1 MOL      0.065544
    152 N14         7.0850   -3.5890   -0.8560 n         1 MOL     -0.698615
    153 C49         6.6850   -4.3780   -2.0650 c3        1 MOL      0.250856
    154 C50         7.3570   -4.1580   -3.4140 c         1 MOL      0.361212
    155 O20         7.0060   -4.8110   -4.3970 o         1 MOL     -0.496416
    156 C51         5.1760   -4.4550   -2.1640 c3        1 MOL      0.116213
    157 C52         4.4110   -5.1730   -0.9890 c3        1 MOL     -0.054483
    158 C53         2.8830   -4.9570   -1.1360 c         1 MOL      0.624954
    159 O21         2.3120   -4.0300   -0.5550 o         1 MOL     -0.699915
    160 O22         2.2810   -5.8130   -1.7990 o         1 MOL     -0.699915
    161 H72         7.5440   -4.0240   -0.0700 hn        1 MOL      0.342984
    162 H73         6.9380   -5.4350   -1.9580 h1        1 MOL      0.027262
    163 H74         5.0140   -5.1640   -2.9820 hc        1 MOL     -0.030837
    164 H75         4.7950   -3.4480   -2.3200 hc        1 MOL     -0.030837
    165 H76         4.7990   -4.7090   -0.0750 hc        1 MOL      0.010641
    166 H77         4.6340   -6.2340   -1.0360 hc        1 MOL      0.010641
    167 N15         8.3430   -3.2740   -3.5450 n         1 MOL     -0.293740
    168 C54         8.8250   -2.5580   -4.7450 c3        1 MOL     -0.047332
    169 H78         9.8900   -2.3520   -4.6410 h1        1 MOL      0.070592
    170 H79         8.6600   -3.1760   -5.6280 h1        1 MOL      0.070592
    171 H80         8.2820   -1.6190   -4.8520 h1        1 MOL      0.070592
    172 H81         8.6030   -2.8950   -2.6440 hn        1 MOL      0.225420
    173 Ca1         0.9570   -1.8760   -0.5030 Ca        1 MOL      1.748479
    174 O23         3.4620   -1.2510   -1.4300 oh        1 MOL     -0.835945
    175 H82         4.4100   -1.3420   -1.3140 ho        1 MOL      0.409520
    176 H83         3.3430   -1.0590   -2.3580 ho        1 MOL      0.409520
    177 O24         0.8670   -0.9460   -3.0350 oh        1 MOL     -0.835945
    178 H84         0.5890   -0.0430   -3.1960 ho        1 MOL      0.409520
    179 H85         0.8440   -1.3560   -3.8940 ho        1 MOL      0.409520
    180 O25        -0.1860   -3.6070    1.1990 oh        1 MOL     -0.835945
    181 H86        -0.8270   -4.2930    1.0070 ho        1 MOL      0.409520
    182 H87         0.3500   -3.9740    1.8920 ho        1 MOL      0.409520
    183 O26        -0.0020   -3.8180   -2.1020 oh        1 MOL     -0.835945
    184 H88         0.7930   -4.3570   -2.1680 ho        1 MOL      0.409520
    185 H89        -0.7090   -4.4050   -2.3560 ho        1 MOL      0.409520
@<TRIPOS>BOND
     1    1    2 1   
     2    1    4 1   
     3    1    5 1   
     4    1    6 1   
     5    2    3 2   
     6    2    7 1   
     7    7    8 1   
     8    7   15 1   
     9    8    9 1   
    10    8   11 1   
    11    8   16 1   
    12    9   10 2   
    13    9   19 1   
    14   11   12 1   
    15   11   17 1   
    16   11   18 1   
    17   12   13 1   
    18   12   14 1   
    19   19   20 1   
    20   19   28 1   
    21   20   21 1   
    22   20   23 1   
    23   20   29 1   
    24   21   22 2   
    25   21   41 1   
    26   23   24 1   
    27   23   30 1   
    28   23   31 1   
    29   24   25 1   
    30   24   32 1   
    31   24   33 1   
    32   25   26 1   
    33   25   34 1   
    34   25   35 1   
    35   26   27 1   
    36   26   36 1   
    37   26   37 1   
    38   27   38 1   
    39   27   39 1   
    40   27   40 1   
    41   41   42 1   
    42   41   49 1   
    43   42   43 1   
    44   42   45 1   
    45   42   50 1   
    46   43   44 2   
    47   43   53 1   
    48   45   46 1   
    49   45   51 1   
    50   45   52 1   
    51   46   47 1   
    52   46   48 1   
    53   53   54 1   
    54   53   57 1   
    55   54   55 1   
    56   54   58 1   
    57   54   59 1   
    58   55   56 2   
    59   55   60 1   
    60   60   61 1   
    61   60   68 1   
    62   61   62 1   
    63   61   64 1   
    64   61   69 1   
    65   62   63 2   
    66   62   74 1   
    67   64   65 1   
    68   64   70 1   
    69   64   71 1   
    70   65   66 1   
    71   65   67 2   
    72   66   72 1   
    73   66   73 1   
    74   74   75 1   
    75   74   78 1   
    76   75   76 1   
    77   75   79 1   
    78   75   80 1   
    79   76   77 2   
    80   76   81 1   
    81   81   82 1   
    82   81   93 1   
    83   82   83 1   
    84   82   85 1   
    85   82   94 1   
    86   83   84 2   
    87   83  102 1   
    88   85   86 1   
    89   85   95 1   
    90   85   96 1   
    91   86   87 ar  
    92   86   88 ar  
    93   87   89 ar  
    94   87   97 1   
    95   88   90 ar  
    96   88   98 1   
    97   89   91 ar  
    98   89   99 1   
    99   90   91 ar  
   100   90  100 1   
   101   91   92 1   
   102   92  101 1   
   103  102  103 1   
   104  102  110 1   
   105  103  104 1   
   106  103  106 1   
   107  103  111 1   
   108  104  105 2   
   109  104  121 1   
   110  106  107 1   
   111  106  108 1   
   112  106  112 1   
   113  107  109 1   
   114  107  113 1   
   115  107  114 1   
   116  108  115 1   
   117  108  116 1   
   118  108  117 1   
   119  109  118 1   
   120  109  119 1   
   121  109  120 1   
   122  121  122 1   
   123  121  127 1   
   124  122  123 1   
   125  122  125 1   
   126  122  128 1   
   127  123  124 2   
   128  123  132 1   
   129  125  126 1   
   130  125  129 1   
   131  125  130 1   
   132  126  131 1   
   133  132  133 1   
   134  132  137 1   
   135  133  134 1   
   136  133  136 1   
   137  133  138 1   
   138  134  135 2   
   139  134  142 1   
   140  136  139 1   
   141  136  140 1   
   142  136  141 1   
   143  142  143 1   
   144  142  147 1   
   145  143  144 1   
   146  143  146 1   
   147  143  148 1   
   148  144  145 2   
   149  144  152 1   
   150  146  149 1   
   151  146  150 1   
   152  146  151 1   
   153  152  153 1   
   154  152  161 1   
   155  153  154 1   
   156  153  156 1   
   157  153  162 1   
   158  154  155 2   
   159  154  167 1   
   160  156  157 1   
   161  156  163 1   
   162  156  164 1   
   163  157  158 1   
   164  157  165 1   
   165  157  166 1   
   166  158  159 1   
   167  158  160 1   
   168  167  168 1   
   169  167  172 1   
   170  168  169 1   
   171  168  170 1   
   172  168  171 1   
   173  174  175 1   
   174  174  176 1   
   175  177  178 1   
   176  177  179 1   
   177  180  181 1   
   178  180  182 1   
   179  183  184 1   
   180  183  185 1   
@<TRIPOS>SUBSTRUCTURE
     1 MOL         1 TEMP              0 ****  ****    0 ROOT
