@<TRIPOS>MOLECULE
MOL
  188   182     1     0     0
SMALL
resp


@<TRIPOS>ATOM
      1 C1          1.0320    1.5960    2.6980 c3        1 MOL     -0.273937
      2 C2          2.2210    1.4490    1.7240 c         1 MOL      0.594743
      3 O1          2.2580    1.8380    0.5710 o         1 MOL     -0.563178
      4 H1          0.2980    2.2810    2.2740 hc        1 MOL      0.075840
      5 H2          0.5700    0.6220    2.8580 hc        1 MOL      0.075840
      6 H3          1.3880    1.9900    3.6500 hc        1 MOL      0.075840
      7 N1          3.3310    0.9200    2.2380 n         1 MOL     -0.517535
      8 C3          4.6180    0.7400    1.6710 c3        1 MOL      0.293787
      9 C4          4.7640   -0.7310    1.2760 c         1 MOL      0.402924
     10 O2          5.7270   -0.9800    0.4670 o         1 MOL     -0.469592
     11 C5          5.7490    1.0840    2.7050 c3        1 MOL     -0.272121
     12 C6          5.5710    0.4920    4.1200 c         1 MOL      0.819681
     13 O3          6.5970    0.1950    4.7690 o         1 MOL     -0.748572
     14 O4          4.4470    0.2700    4.5300 o         1 MOL     -0.748572
     15 H4          3.2290    0.6390    3.2050 hn        1 MOL      0.308515
     16 H5          4.7340    1.3340    0.7760 h1        1 MOL      0.008128
     17 H6          5.6520    2.1700    2.7860 hc        1 MOL      0.080614
     18 H7          6.7010    0.8310    2.2430 hc        1 MOL      0.080614
     19 N2          3.8950   -1.6660    1.7810 n         1 MOL     -0.571224
     20 C7          4.1300   -3.1990    1.7480 c3        1 MOL      0.183969
     21 C8          4.2250   -3.9220    0.3630 c         1 MOL      0.423036
     22 O5          4.5610   -5.0740    0.2520 o         1 MOL     -0.509608
     23 C9          5.3020   -3.5950    2.5680 c3        1 MOL     -0.165771
     24 C10         5.1440   -3.3300    4.0780 c3        1 MOL      0.075552
     25 C11         6.3570   -3.7160    4.8060 c3        1 MOL     -0.026696
     26 C12         6.1660   -3.4340    6.2720 c3        1 MOL      0.021491
     27 N3          6.6490   -2.0690    6.5010 n4        1 MOL     -0.405449
     28 H8          3.2510   -1.3370    2.4900 hn        1 MOL      0.316205
     29 H9          3.2740   -3.7010    2.1960 h1        1 MOL      0.039157
     30 H10         6.1240   -2.9770    2.2120 hc        1 MOL      0.065441
     31 H11         5.6120   -4.6310    2.4350 hc        1 MOL      0.065441
     32 H12         4.3030   -3.9380    4.3850 hc        1 MOL      0.006071
     33 H13         4.8610   -2.2980    4.2960 hc        1 MOL      0.006071
     34 H14         7.2160   -3.1410    4.4430 hc        1 MOL      0.043002
     35 H15         6.6230   -4.7720    4.6890 hc        1 MOL      0.043002
     36 H16         6.8010   -4.1470    6.7900 hx        1 MOL      0.052335
     37 H17         5.1070   -3.5390    6.5550 hx        1 MOL      0.052335
     38 H18         7.6420   -2.0990    6.6440 hn        1 MOL      0.338429
     39 H19         6.3160   -1.4830    5.7330 hn        1 MOL      0.338429
     40 H20         6.1970   -1.7270    7.3420 hn        1 MOL      0.338429
     41 N4          3.8620   -3.2240   -0.7260 n         1 MOL     -0.405865
     42 C13         4.0880   -3.7200   -2.1430 c3        1 MOL      0.071588
     43 C14         5.0030   -2.8710   -2.9600 c         1 MOL      0.515477
     44 O6          5.2440   -3.0820   -4.1870 o         1 MOL     -0.575752
     45 C15         2.6840   -3.8060   -2.9300 c3        1 MOL     -0.399998
     46 C16         1.6040   -4.5110   -2.1120 c         1 MOL      0.975061
     47 O7          0.7520   -3.8410   -1.5060 o         1 MOL     -0.806954
     48 O8          1.4760   -5.7390   -2.1210 o         1 MOL     -0.806954
     49 H21         3.6690   -2.2380   -0.5710 hn        1 MOL      0.296476
     50 H22         4.5400   -4.7160   -2.1520 h1        1 MOL      0.115794
     51 H23         2.8930   -4.2560   -3.8980 hc        1 MOL      0.092148
     52 H24         2.4230   -2.7540   -3.0450 hc        1 MOL      0.092148
     53 N5          5.6150   -1.8600   -2.3900 n         1 MOL     -0.373038
     54 C17         6.1600   -0.7250   -3.1430 c3        1 MOL      0.134993
     55 C18         7.2950   -0.0140   -2.3700 c         1 MOL      0.477160
     56 O9          8.2220   -0.6670   -1.9830 o         1 MOL     -0.504994
     57 H25         5.5570   -1.7820   -1.3820 hn        1 MOL      0.243458
     58 H26         5.4250    0.0040   -3.4850 h1        1 MOL      0.025994
     59 H27         6.6070   -1.1270   -4.0480 h1        1 MOL      0.025994
     60 N6          7.1440    1.2870   -2.0050 n         1 MOL     -0.500830
     61 C19         6.0530    2.2560   -2.1600 c3        1 MOL      0.222917
     62 C20         5.9170    3.0100   -0.7800 c         1 MOL      0.477173
     63 O10         6.8230    2.8750    0.1100 o         1 MOL     -0.552825
     64 C21         6.4240    3.1840   -3.3420 c3        1 MOL     -0.708565
     65 C22         6.7020    2.4900   -4.7050 c         1 MOL      0.810279
     66 N7          5.7240    1.9600   -5.3300 n         1 MOL     -0.805125
     67 O11         7.7850    2.6150   -5.2340 o         1 MOL     -0.559627
     68 H28         7.8680    1.6460   -1.3920 hn        1 MOL      0.329158
     69 H29         5.1070    1.7230   -2.2430 h1        1 MOL      0.057813
     70 H30         7.3220    3.7520   -3.1180 hc        1 MOL      0.205357
     71 H31         5.7010    3.9920   -3.4690 hc        1 MOL      0.205357
     72 H32         4.8340    2.0750   -4.8650 hn        1 MOL      0.373410
     73 H33         5.8200    1.4030   -6.1660 hn        1 MOL      0.373410
     74 N8          4.9580    3.8780   -0.5670 n         1 MOL     -0.215241
     75 C23         3.7980    4.1280   -1.4220 c3        1 MOL     -0.352751
     76 C24         2.7840    4.9430   -0.6330 c         1 MOL      0.726539
     77 O12         3.1330    5.8660    0.1310 o         1 MOL     -0.586536
     78 H34         4.9320    4.3660    0.3170 hn        1 MOL      0.256764
     79 H35         3.3440    3.1950   -1.7560 h1        1 MOL      0.096409
     80 H36         4.0820    4.7030   -2.3090 h1        1 MOL      0.096409
     81 N9          1.5520    4.6050   -0.7260 n         1 MOL     -0.396988
     82 C25         0.3510    5.3690   -0.3320 c3        1 MOL     -0.038635
     83 C26        -0.8380    4.5550   -0.1450 c         1 MOL      0.700637
     84 O13        -0.9290    3.4730   -0.6970 o         1 MOL     -0.544791
     85 C27         0.0320    6.4260   -1.4770 c3        1 MOL     -0.214740
     86 C28        -0.9580    7.4450   -0.9590 ca        1 MOL      0.023759
     87 C29        -2.1730    7.7510   -1.6440 ca        1 MOL     -0.055774
     88 C30        -0.5820    8.1330    0.1480 ca        1 MOL     -0.055774
     89 C31        -3.0870    8.5890   -1.0640 ca        1 MOL     -0.413371
     90 C32        -1.4540    9.0990    0.7520 ca        1 MOL     -0.413371
     91 C33        -2.6920    9.3270    0.0710 ca        1 MOL      0.472546
     92 O14        -3.4880   10.1880    0.7670 oh        1 MOL     -0.522951
     93 H37         1.3780    3.8720   -1.3990 hn        1 MOL      0.265922
     94 H38         0.5860    5.9060    0.5800 h1        1 MOL      0.080227
     95 H39        -0.2910    5.9380   -2.4000 hc        1 MOL      0.094750
     96 H40         1.0000    6.9060   -1.6290 hc        1 MOL      0.094750
     97 H41        -2.5190    7.2110   -2.5210 ha        1 MOL      0.132205
     98 H42         0.3990    7.9650    0.5660 ha        1 MOL      0.132205
     99 H43        -3.9990    8.7950   -1.5850 ha        1 MOL      0.197018
    100 H44        -1.2080    9.6860    1.6240 ha        1 MOL      0.197018
    101 H45        -3.1120   10.3820    1.6300 ho        1 MOL      0.358677
    102 N10        -1.7920    5.0190    0.7050 n         1 MOL     -0.509146
    103 C34        -3.0720    4.3780    1.0680 c3        1 MOL     -0.083783
    104 C35        -4.0130    4.1150   -0.1340 c         1 MOL      0.623888
    105 O15        -4.3010    5.0440   -0.9140 o         1 MOL     -0.490597
    106 C36        -3.6830    5.1060    2.2900 c3        1 MOL      0.009386
    107 C37        -2.9310    4.8850    3.5930 c3        1 MOL      0.090266
    108 C38        -3.8180    6.5880    1.9240 c3        1 MOL      0.103890
    109 C39        -3.9030    4.9950    4.7630 c3        1 MOL     -0.194942
    110 H46        -1.5810    5.8760    1.1980 hn        1 MOL      0.256291
    111 H47        -2.9340    3.3800    1.4880 h1        1 MOL      0.100535
    112 H48        -4.6770    4.6770    2.4110 hc        1 MOL      0.028109
    113 H49        -2.0800    5.5590    3.6710 hc        1 MOL     -0.007223
    114 H50        -2.4990    3.8770    3.6200 hc        1 MOL     -0.007223
    115 H51        -4.4500    6.6260    1.0280 hc        1 MOL     -0.019934
    116 H52        -4.3410    7.0950    2.7350 hc        1 MOL     -0.019934
    117 H53        -2.8640    7.1070    1.7760 hc        1 MOL     -0.019934
    118 H54        -3.3670    4.7600    5.6920 hc        1 MOL      0.046548
    119 H55        -4.1630    6.0410    4.8710 hc        1 MOL      0.046548
    120 H56        -4.8310    4.4420    4.6440 hc        1 MOL      0.046548
    121 N11        -4.5610    2.8830   -0.3250 n         1 MOL     -0.450708
    122 C40        -5.6030    2.4740   -1.3050 c3        1 MOL      0.031413
    123 C41        -5.4850    0.9970   -1.6780 c         1 MOL      0.631981
    124 O16        -4.9100    0.1670   -0.9560 o         1 MOL     -0.405761
    125 C42        -7.0090    2.7640   -0.7730 c3        1 MOL      0.177787
    126 O17        -7.3260    2.2800    0.5370 oh        1 MOL     -0.588414
    127 H57        -4.1150    2.1450    0.2210 hn        1 MOL      0.206852
    128 H58        -5.3890    3.1070   -2.1660 h1        1 MOL      0.048777
    129 H59        -7.7200    2.4330   -1.5400 h1        1 MOL     -0.001968
    130 H60        -7.0280    3.8480   -0.6950 h1        1 MOL     -0.001968
    131 H61        -7.9900    2.8860    0.8820 ho        1 MOL      0.407544
    132 N12        -6.1140    0.6830   -2.8520 n         1 MOL     -0.610699
    133 C43        -6.2290   -0.6070   -3.4400 c3        1 MOL      0.197665
    134 C44        -6.7490   -1.6860   -2.5210 c         1 MOL      0.265889
    135 O18        -6.2120   -2.7690   -2.5720 o         1 MOL     -0.381274
    136 C45        -4.9560   -0.9950   -4.1670 c3        1 MOL     -0.280473
    137 H62        -6.5350    1.3570   -3.4740 hn        1 MOL      0.330324
    138 H63        -6.9300   -0.4320   -4.2570 h1        1 MOL      0.059055
    139 H64        -5.0560   -1.8910   -4.7890 hc        1 MOL      0.093300
    140 H65        -4.5940   -0.2210   -4.8500 hc        1 MOL      0.093300
    141 H66        -4.1440   -1.1320   -3.4490 hc        1 MOL      0.093300
    142 N13        -7.6490   -1.3840   -1.5630 n         1 MOL     -0.404171
    143 C46        -8.3260   -2.3720   -0.6800 c3        1 MOL      0.393174
    144 C47        -7.4490   -3.0720    0.3280 c         1 MOL      0.218843
    145 O19        -7.6450   -4.2680    0.5800 o         1 MOL     -0.489112
    146 C48        -9.2120   -3.2610   -1.5730 c3        1 MOL     -0.420689
    147 H67        -8.1580   -0.5080   -1.5720 hn        1 MOL      0.262219
    148 H68        -8.9380   -1.6930   -0.0740 h1        1 MOL     -0.027137
    149 H69        -9.9850   -2.6610   -2.0420 hc        1 MOL      0.113427
    150 H70        -8.5500   -3.8670   -2.1950 hc        1 MOL      0.113427
    151 H71        -9.6470   -3.9340   -0.8330 hc        1 MOL      0.113427
    152 N14        -6.4350   -2.4150    0.8040 n         1 MOL      0.021960
    153 C49        -5.3840   -3.0230    1.5850 c3        1 MOL     -0.375552
    154 C50        -5.7540   -3.5430    2.9820 c         1 MOL      0.442546
    155 O20        -5.0470   -4.4470    3.4870 o         1 MOL     -0.522925
    156 C51        -4.1600   -2.0340    1.5870 c3        1 MOL      0.325425
    157 C52        -2.7530   -2.6960    1.8070 c3        1 MOL     -0.232474
    158 C53        -2.4220   -3.7580    0.7570 c         1 MOL      0.778796
    159 O21        -2.2770   -5.0120    1.0900 o         1 MOL     -0.747145
    160 O22        -2.2170   -3.5270   -0.4280 o         1 MOL     -0.747145
    161 H72        -6.4090   -1.4580    0.4850 hn        1 MOL      0.089049
    162 H73        -5.0830   -3.8760    0.9770 h1        1 MOL      0.225929
    163 H74        -4.2620   -1.3990    2.4720 hc        1 MOL     -0.048435
    164 H75        -4.1740   -1.4550    0.6680 hc        1 MOL     -0.048435
    165 H76        -2.7930   -3.1670    2.7900 hc        1 MOL      0.038650
    166 H77        -1.9400   -1.9600    1.7840 hc        1 MOL      0.038650
    167 N15        -6.7400   -2.9730    3.6480 n         1 MOL     -0.153823
    168 C54        -7.2860   -3.3790    4.9810 c3        1 MOL     -0.165893
    169 H78        -6.6720   -4.1780    5.3960 h1        1 MOL      0.090085
    170 H79        -7.2720   -2.5230    5.6550 h1        1 MOL      0.090085
    171 H80        -8.3100   -3.7330    4.8620 h1        1 MOL      0.090085
    172 H81        -7.1710   -2.2170    3.1390 hn        1 MOL      0.154378
    173 Ca1        -1.0340   -5.8390   -1.1570 Ca        1 MOL      1.672221
    174 O23        -0.7650   -7.7980   -2.9320 oh        1 MOL     -0.797427
    175 H82        -0.1270   -7.6390   -3.6320 ho        1 MOL      0.399426
    176 H83        -0.4640   -8.6080   -2.5110 ho        1 MOL      0.399426
    177 O24         0.3820   -6.2700    1.0990 oh        1 MOL     -0.797427
    178 H84         1.1510   -6.8140    1.2470 ho        1 MOL      0.399426
    179 H85         0.0530   -6.0900    1.9770 ho        1 MOL      0.399426
    180 O25        -2.0620   -7.8690    0.1320 oh        1 MOL     -0.797427
    181 H86        -2.1670   -8.7890   -0.1410 ho        1 MOL      0.399426
    182 H87        -2.4360   -7.8450    1.0180 ho        1 MOL      0.399426
    183 O26        -3.4250   -6.0920   -2.2820 oh        1 MOL     -0.797427
    184 H88        -4.3030   -5.7290   -2.2210 ho        1 MOL      0.399426
    185 H89        -3.4300   -6.5900   -3.1020 ho        1 MOL      0.399426
    186 O27        -1.2580   -4.6130   -3.6840 oh        1 MOL     -0.797427
    187 H90        -1.9990   -4.0160   -3.8020 ho        1 MOL      0.399426
    188 H91        -0.7810   -4.5730   -4.5130 ho        1 MOL      0.399426
@<TRIPOS>BOND
     1    1    2 1   
     2    1    4 1   
     3    1    5 1   
     4    1    6 1   
     5    2    3 2   
     6    2    7 1   
     7    7    8 1   
     8    7   15 1   
     9    8    9 1   
    10    8   11 1   
    11    8   16 1   
    12    9   10 2   
    13    9   19 1   
    14   11   12 1   
    15   11   17 1   
    16   11   18 1   
    17   12   13 1   
    18   12   14 1   
    19   19   20 1   
    20   19   28 1   
    21   20   21 1   
    22   20   23 1   
    23   20   29 1   
    24   21   22 2   
    25   21   41 1   
    26   23   24 1   
    27   23   30 1   
    28   23   31 1   
    29   24   25 1   
    30   24   32 1   
    31   24   33 1   
    32   25   26 1   
    33   25   34 1   
    34   25   35 1   
    35   26   27 1   
    36   26   36 1   
    37   26   37 1   
    38   27   38 1   
    39   27   39 1   
    40   27   40 1   
    41   41   42 1   
    42   41   49 1   
    43   42   43 1   
    44   42   45 1   
    45   42   50 1   
    46   43   44 2   
    47   43   53 1   
    48   45   46 1   
    49   45   51 1   
    50   45   52 1   
    51   46   47 1   
    52   46   48 1   
    53   53   54 1   
    54   53   57 1   
    55   54   55 1   
    56   54   58 1   
    57   54   59 1   
    58   55   56 2   
    59   55   60 1   
    60   60   61 1   
    61   60   68 1   
    62   61   62 1   
    63   61   64 1   
    64   61   69 1   
    65   62   63 2   
    66   62   74 1   
    67   64   65 1   
    68   64   70 1   
    69   64   71 1   
    70   65   66 1   
    71   65   67 2   
    72   66   72 1   
    73   66   73 1   
    74   74   75 1   
    75   74   78 1   
    76   75   76 1   
    77   75   79 1   
    78   75   80 1   
    79   76   77 2   
    80   76   81 1   
    81   81   82 1   
    82   81   93 1   
    83   82   83 1   
    84   82   85 1   
    85   82   94 1   
    86   83   84 2   
    87   83  102 1   
    88   85   86 1   
    89   85   95 1   
    90   85   96 1   
    91   86   87 ar  
    92   86   88 ar  
    93   87   89 ar  
    94   87   97 1   
    95   88   90 ar  
    96   88   98 1   
    97   89   91 ar  
    98   89   99 1   
    99   90   91 ar  
   100   90  100 1   
   101   91   92 1   
   102   92  101 1   
   103  102  103 1   
   104  102  110 1   
   105  103  104 1   
   106  103  106 1   
   107  103  111 1   
   108  104  105 2   
   109  104  121 1   
   110  106  107 1   
   111  106  108 1   
   112  106  112 1   
   113  107  109 1   
   114  107  113 1   
   115  107  114 1   
   116  108  115 1   
   117  108  116 1   
   118  108  117 1   
   119  109  118 1   
   120  109  119 1   
   121  109  120 1   
   122  121  122 1   
   123  121  127 1   
   124  122  123 1   
   125  122  125 1   
   126  122  128 1   
   127  123  124 2   
   128  123  132 1   
   129  125  126 1   
   130  125  129 1   
   131  125  130 1   
   132  126  131 1   
   133  132  133 1   
   134  132  137 1   
   135  133  134 1   
   136  133  136 1   
   137  133  138 1   
   138  134  135 2   
   139  134  142 1   
   140  136  139 1   
   141  136  140 1   
   142  136  141 1   
   143  142  143 1   
   144  142  147 1   
   145  143  144 1   
   146  143  146 1   
   147  143  148 1   
   148  144  145 2   
   149  144  152 1   
   150  146  149 1   
   151  146  150 1   
   152  146  151 1   
   153  152  153 1   
   154  152  161 1   
   155  153  154 1   
   156  153  156 1   
   157  153  162 1   
   158  154  155 2   
   159  154  167 1   
   160  156  157 1   
   161  156  163 1   
   162  156  164 1   
   163  157  158 1   
   164  157  165 1   
   165  157  166 1   
   166  158  159 1   
   167  158  160 1   
   168  167  168 1   
   169  167  172 1   
   170  168  169 1   
   171  168  170 1   
   172  168  171 1   
   173  174  175 1   
   174  174  176 1   
   175  177  178 1   
   176  177  179 1   
   177  180  181 1   
   178  180  182 1   
   179  183  184 1   
   180  183  185 1   
   181  186  187 1   
   182  186  188 1   
@<TRIPOS>SUBSTRUCTURE
     1 MOL         1 TEMP              0 ****  ****    0 ROOT
