@<TRIPOS>MOLECULE
MOL
  188   182     1     0     0
SMALL
resp


@<TRIPOS>ATOM
      1 C1          4.3330    2.2710    2.1550 c3        1 MOL     -0.328950
      2 C2          5.2690    2.1560    0.9560 c         1 MOL      0.753247
      3 O1          4.8680    1.6890   -0.0750 o         1 MOL     -0.521557
      4 H1          4.1170    1.2750    2.5420 hc        1 MOL      0.075390
      5 H2          4.8100    2.8670    2.9320 hc        1 MOL      0.075390
      6 H3          3.4040    2.7500    1.8470 hc        1 MOL      0.075390
      7 N1          6.5040    2.7030    1.0220 n         1 MOL     -0.629410
      8 C3          7.5490    2.6980    0.0020 c3        1 MOL      0.087609
      9 C4          8.0100    1.3300   -0.5520 c         1 MOL      0.503344
     10 O2          8.7270    1.2570   -1.5470 o         1 MOL     -0.535948
     11 C5          7.4140    3.8550   -1.0470 c3        1 MOL     -0.283791
     12 C6          7.0530    5.1540   -0.3020 c         1 MOL      0.815655
     13 O3          5.9690    5.7270   -0.4290 o         1 MOL     -0.680412
     14 O4          7.9370    5.6550    0.3490 o         1 MOL     -0.680412
     15 H4          6.7770    3.1810    1.8640 hn        1 MOL      0.336204
     16 H5          8.4440    2.9430    0.5790 h1        1 MOL      0.057290
     17 H6          6.6700    3.5540   -1.7770 hc        1 MOL      0.072522
     18 H7          8.3360    3.9760   -1.6140 hc        1 MOL      0.072522
     19 N2          7.6060    0.2480    0.1060 n         1 MOL     -0.296000
     20 C7          7.9370   -1.1430   -0.2100 c3        1 MOL      0.051747
     21 C8          6.6710   -1.9790   -0.5260 c         1 MOL      0.579039
     22 O5          6.6070   -3.1320   -0.0430 o         1 MOL     -0.579813
     23 C9          8.7640   -1.7830    0.9420 c3        1 MOL     -0.103516
     24 C10        10.0460   -0.9370    1.2430 c3        1 MOL     -0.023104
     25 C11        10.8960   -1.4880    2.3840 c3        1 MOL     -0.082957
     26 C12        11.5550   -2.8640    2.1050 c3        1 MOL      0.051679
     27 N3         12.4180   -3.3520    3.2580 n4        1 MOL     -0.209405
     28 H8          6.9710    0.4340    0.8700 hn        1 MOL      0.160730
     29 H9          8.5610   -1.2750   -1.0860 h1        1 MOL      0.060868
     30 H10         9.0690   -2.8210    0.7750 hc        1 MOL      0.046708
     31 H11         8.1580   -1.8600    1.8470 hc        1 MOL      0.046708
     32 H12         9.8370    0.1210    1.3950 hc        1 MOL      0.048830
     33 H13        10.7170   -0.9420    0.3830 hc        1 MOL      0.048830
     34 H14        10.1630   -1.5400    3.1900 hc        1 MOL      0.043810
     35 H15        11.6460   -0.7240    2.5560 hc        1 MOL      0.043810
     36 H16        12.2090   -2.7920    1.2410 hx        1 MOL      0.071957
     37 H17        10.7530   -3.5790    1.9070 hx        1 MOL      0.071957
     38 H18        12.9910   -2.6290    3.6720 hn        1 MOL      0.233030
     39 H19        11.7800   -3.6370    3.9900 hn        1 MOL      0.233030
     40 H20        12.9590   -4.1770    3.0260 hn        1 MOL      0.233030
     41 N4          5.6420   -1.3410   -1.1070 n         1 MOL     -0.530205
     42 C13         4.3020   -2.0250   -1.0510 c3        1 MOL     -0.001887
     43 C14         3.6080   -1.9880   -2.4660 c         1 MOL      0.523303
     44 O6          3.3760   -0.8940   -3.0020 o         1 MOL     -0.487538
     45 C15         3.3620   -1.2380    0.0160 c3        1 MOL     -0.111216
     46 C16         2.0540   -1.9410    0.3670 c         1 MOL      0.583800
     47 O7          1.4570   -1.5920    1.3710 o         1 MOL     -0.645369
     48 O8          1.6540   -2.9130   -0.3420 o         1 MOL     -0.645369
     49 H21         5.6620   -0.3410   -1.1740 hn        1 MOL      0.326592
     50 H22         4.3980   -3.0620   -0.7460 h1        1 MOL      0.061349
     51 H23         3.1220   -0.2110   -0.2370 hc        1 MOL      0.088558
     52 H24         3.8910   -1.1210    0.9570 hc        1 MOL      0.088558
     53 N5          3.1250   -3.1910   -2.8440 n         1 MOL     -0.337668
     54 C17         2.3110   -3.3970   -4.0740 c3        1 MOL     -0.294277
     55 C18         0.9020   -2.6390   -4.0340 c         1 MOL      0.611678
     56 O9          0.2040   -2.5840   -5.0180 o         1 MOL     -0.558263
     57 H25         3.1780   -3.9100   -2.1320 hn        1 MOL      0.224785
     58 H26         2.1560   -4.4630   -4.2410 h1        1 MOL      0.153255
     59 H27         2.8960   -2.9740   -4.8910 h1        1 MOL      0.153255
     60 N6          0.5170   -1.9930   -2.9470 n         1 MOL     -0.452167
     61 C19        -0.6420   -1.1210   -2.8100 c3        1 MOL      0.352534
     62 C20        -0.3660    0.4130   -2.8420 c         1 MOL      0.457902
     63 O10        -1.2420    1.1710   -3.1710 o         1 MOL     -0.525524
     64 C21        -1.6460   -1.4830   -1.7110 c3        1 MOL     -0.763255
     65 C22        -2.0640   -2.9010   -1.8870 c         1 MOL      0.772539
     66 N7         -2.9560   -3.1570   -2.8170 n         1 MOL     -0.626511
     67 O11        -1.4810   -3.8250   -1.2970 o         1 MOL     -0.581628
     68 H28         1.0410   -2.1350   -2.0940 hn        1 MOL      0.190349
     69 H29        -1.1520   -1.1920   -3.7700 h1        1 MOL      0.001939
     70 H30        -2.5150   -0.8240   -1.7630 hc        1 MOL      0.229909
     71 H31        -1.1820   -1.3510   -0.7350 hc        1 MOL      0.229909
     72 H32        -3.3100   -2.3820   -3.3700 hn        1 MOL      0.331521
     73 H33        -3.2470   -4.0950   -3.0440 hn        1 MOL      0.331521
     74 N8          0.8580    0.7480   -2.4660 n         1 MOL     -0.121199
     75 C23         1.3610    2.1340   -2.5030 c3        1 MOL     -0.252005
     76 C24         0.8260    3.0110   -1.3230 c         1 MOL      0.707176
     77 O12         0.5820    2.5550   -0.2380 o         1 MOL     -0.609819
     78 H34         1.5300    0.0050   -2.3250 hn        1 MOL      0.164385
     79 H35         1.2460    2.6380   -3.4640 h1        1 MOL      0.113875
     80 H36         2.3870    2.1170   -2.1220 h1        1 MOL      0.113875
     81 N9          0.4280    4.2440   -1.6560 n         1 MOL     -0.676518
     82 C25        -0.4420    5.1700   -0.8340 c3        1 MOL      0.297881
     83 C26        -1.8820    4.6300   -0.5060 c         1 MOL      0.373351
     84 O13        -2.8790    5.0210   -1.1590 o         1 MOL     -0.559301
     85 C27         0.4360    5.6520    0.2930 c3        1 MOL     -0.261328
     86 C28        -0.1340    6.9660    0.8980 ca        1 MOL      0.046225
     87 C29        -0.0470    8.1470    0.1380 ca        1 MOL     -0.150992
     88 C30        -0.5770    7.0780    2.2360 ca        1 MOL     -0.150992
     89 C31        -0.3980    9.4020    0.6870 ca        1 MOL     -0.249628
     90 C32        -1.0540    8.3120    2.8020 ca        1 MOL     -0.249628
     91 C33        -0.8910    9.4890    2.0410 ca        1 MOL      0.282589
     92 O14        -1.1360   10.7640    2.4770 oh        1 MOL     -0.442121
     93 H37         0.5460    4.4750   -2.6320 hn        1 MOL      0.342558
     94 H38        -0.6220    5.9980   -1.5140 h1        1 MOL      0.043683
     95 H39         1.4710    5.8660    0.0030 hc        1 MOL      0.123349
     96 H40         0.4620    4.9020    1.0800 hc        1 MOL      0.123349
     97 H41         0.1630    8.1010   -0.9200 ha        1 MOL      0.143228
     98 H42        -0.6530    6.2090    2.8660 ha        1 MOL      0.143228
     99 H43        -0.2900   10.3130    0.1290 ha        1 MOL      0.152036
    100 H44        -1.4020    8.2890    3.8220 ha        1 MOL      0.152036
    101 H45        -1.2970   10.6970    3.4260 ho        1 MOL      0.340858
    102 N10        -1.9350    3.6140    0.3710 n         1 MOL     -0.272623
    103 C34        -2.9990    2.7280    0.8830 c3        1 MOL     -0.108300
    104 C35        -3.8130    1.9530   -0.1600 c         1 MOL      0.569394
    105 O15        -4.3190    0.8770    0.2780 o         1 MOL     -0.567891
    106 C36        -3.7750    3.5840    1.9700 c3        1 MOL     -0.016660
    107 C37        -2.8790    4.0330    3.1320 c3        1 MOL      0.128735
    108 C38        -4.9990    2.7670    2.4000 c3        1 MOL     -0.053955
    109 C39        -2.1250    3.0000    3.9000 c3        1 MOL     -0.389977
    110 H46        -1.0810    3.4270    0.8630 hn        1 MOL      0.378097
    111 H47        -2.4640    1.9550    1.4290 h1        1 MOL      0.102281
    112 H48        -4.0820    4.5420    1.5550 hc        1 MOL      0.047416
    113 H49        -3.5000    4.6470    3.7730 hc        1 MOL     -0.045845
    114 H50        -2.0690    4.6440    2.7200 hc        1 MOL     -0.045845
    115 H51        -4.8680    1.6870    2.4910 hc        1 MOL      0.029004
    116 H52        -5.4440    3.0140    3.3660 hc        1 MOL      0.029004
    117 H53        -5.7720    3.0470    1.6800 hc        1 MOL      0.029004
    118 H54        -1.6900    3.4900    4.7700 hc        1 MOL      0.103032
    119 H55        -2.8060    2.3210    4.4190 hc        1 MOL      0.103032
    120 H56        -1.3650    2.4840    3.3040 hc        1 MOL      0.103032
    121 N11        -3.9890    2.3740   -1.4220 n         1 MOL     -0.418723
    122 C40        -4.7030    1.6480   -2.4560 c3        1 MOL     -0.270092
    123 C41        -6.1780    1.3800   -2.2500 c         1 MOL      0.556198
    124 O16        -6.6990    0.6120   -3.0470 o         1 MOL     -0.495825
    125 C42        -4.4580    2.2820   -3.8380 c3        1 MOL      0.422092
    126 O17        -5.1120    3.4920   -3.8150 oh        1 MOL     -0.646288
    127 H57        -3.8220    3.3400   -1.6630 hn        1 MOL      0.383252
    128 H58        -4.3120    0.6310   -2.4750 h1        1 MOL      0.038421
    129 H59        -4.8360    1.6540   -4.6480 h1        1 MOL      0.011873
    130 H60        -3.3880    2.2540   -4.0400 h1        1 MOL      0.011873
    131 H61        -6.0530    3.3090   -3.7420 ho        1 MOL      0.405506
    132 N12        -6.8840    1.9660   -1.2640 n         1 MOL     -0.472137
    133 C43        -8.1800    1.3970   -0.7700 c3        1 MOL      0.269902
    134 C44        -8.2620   -0.1180   -0.7230 c         1 MOL      0.495333
    135 O18        -9.3280   -0.7470   -1.0020 o         1 MOL     -0.532269
    136 C45        -9.4140    2.0490   -1.4740 c3        1 MOL     -0.384224
    137 H62        -6.4210    2.6630   -0.7020 hn        1 MOL      0.273692
    138 H63        -8.2840    1.6350    0.2880 h1        1 MOL      0.033557
    139 H64        -9.3490    3.1230   -1.3330 hc        1 MOL      0.101394
    140 H65        -9.3140    1.8630   -2.5450 hc        1 MOL      0.101394
    141 H66       -10.3450    1.7570   -0.9880 hc        1 MOL      0.101394
    142 N13        -7.1780   -0.6670   -0.1790 n         1 MOL     -0.502554
    143 C46        -6.8290   -2.0390    0.0070 c3        1 MOL      0.303922
    144 C47        -6.0990   -2.4040    1.3560 c         1 MOL      0.463056
    145 O19        -5.1830   -1.6600    1.7370 o         1 MOL     -0.413725
    146 C48        -5.9950   -2.4410   -1.2760 c3        1 MOL     -0.238373
    147 H67        -6.4610   -0.0490    0.1510 hn        1 MOL      0.216530
    148 H68        -7.7510   -2.6270    0.0670 h1        1 MOL     -0.018710
    149 H69        -5.2480   -1.6650   -1.4530 hc        1 MOL      0.072548
    150 H70        -5.5380   -3.4310   -1.1900 hc        1 MOL      0.072548
    151 H71        -6.6390   -2.4880   -2.1550 hc        1 MOL      0.072548
    152 N14        -6.4130   -3.6080    1.9010 n         1 MOL     -0.599317
    153 C49        -5.5850   -4.1670    2.9990 c3        1 MOL     -0.101260
    154 C50        -5.5250   -3.3900    4.3040 c         1 MOL      0.453176
    155 O20        -4.6660   -3.5390    5.1250 o         1 MOL     -0.479047
    156 C51        -4.2500   -4.7070    2.6160 c3        1 MOL      0.428867
    157 C52        -4.0620   -5.4920    1.2570 c3        1 MOL     -0.293615
    158 C53        -2.5960   -5.9190    0.9760 c         1 MOL      0.634507
    159 O21        -1.6410   -5.7790    1.8240 o         1 MOL     -0.693541
    160 O22        -2.2640   -6.2830   -0.1560 o         1 MOL     -0.693541
    161 H72        -7.1760   -4.1930    1.6190 hn        1 MOL      0.362729
    162 H73        -6.2990   -4.9870    3.0940 h1        1 MOL      0.050936
    163 H74        -3.9530   -5.3620    3.4290 hc        1 MOL     -0.078592
    164 H75        -3.5050   -3.9040    2.6430 hc        1 MOL     -0.078592
    165 H76        -4.3670   -4.9220    0.3870 hc        1 MOL      0.045444
    166 H77        -4.6150   -6.4370    1.3530 hc        1 MOL      0.045444
    167 N15        -6.5360   -2.5250    4.4890 n         1 MOL     -0.228547
    168 C54        -6.7410   -1.5950    5.5950 c3        1 MOL     -0.254576
    169 H78        -6.0190   -0.7810    5.5220 h1        1 MOL      0.112577
    170 H79        -7.7520   -1.1890    5.5460 h1        1 MOL      0.112577
    171 H80        -6.6050   -2.1180    6.5410 h1        1 MOL      0.112577
    172 H81        -7.2410   -2.5590    3.7680 hn        1 MOL      0.220004
    173 Ca1         0.2350   -5.0810    0.1670 Ca        1 MOL      1.714101
    174 O23         0.5690   -7.7120    0.7650 oh        1 MOL     -0.823888
    175 H82         0.6800   -8.6070    0.4340 ho        1 MOL      0.410450
    176 H83         0.8080   -7.7660    1.6920 ho        1 MOL      0.410450
    177 O24         1.4850   -5.4770    2.9010 oh        1 MOL     -0.823888
    178 H84         2.4210   -5.3170    3.0530 ho        1 MOL      0.410450
    179 H85         1.0730   -5.2940    3.7480 ho        1 MOL      0.410450
    180 O25         0.2610   -6.3390   -2.1780 oh        1 MOL     -0.823888
    181 H86         0.9340   -7.0160   -2.1820 ho        1 MOL      0.410450
    182 H87        -0.2200   -6.4760   -2.9960 ho        1 MOL      0.410450
    183 O26        -0.6060   -3.0610    1.8780 oh        1 MOL     -0.823888
    184 H88        -1.4400   -2.6000    1.9050 ho        1 MOL      0.410450
    185 H89         0.0380   -2.3760    1.6830 ho        1 MOL      0.410450
    186 O27         2.7850   -5.9330   -0.2270 oh        1 MOL     -0.823888
    187 H90         3.0540   -6.7580    0.1700 ho        1 MOL      0.410450
    188 H91         3.3910   -5.8070   -0.9560 ho        1 MOL      0.410450
@<TRIPOS>BOND
     1    1    2 1   
     2    1    4 1   
     3    1    5 1   
     4    1    6 1   
     5    2    3 2   
     6    2    7 1   
     7    7    8 1   
     8    7   15 1   
     9    8    9 1   
    10    8   11 1   
    11    8   16 1   
    12    9   10 2   
    13    9   19 1   
    14   11   12 1   
    15   11   17 1   
    16   11   18 1   
    17   12   13 1   
    18   12   14 1   
    19   19   20 1   
    20   19   28 1   
    21   20   21 1   
    22   20   23 1   
    23   20   29 1   
    24   21   22 2   
    25   21   41 1   
    26   23   24 1   
    27   23   30 1   
    28   23   31 1   
    29   24   25 1   
    30   24   32 1   
    31   24   33 1   
    32   25   26 1   
    33   25   34 1   
    34   25   35 1   
    35   26   27 1   
    36   26   36 1   
    37   26   37 1   
    38   27   38 1   
    39   27   39 1   
    40   27   40 1   
    41   41   42 1   
    42   41   49 1   
    43   42   43 1   
    44   42   45 1   
    45   42   50 1   
    46   43   44 2   
    47   43   53 1   
    48   45   46 1   
    49   45   51 1   
    50   45   52 1   
    51   46   47 1   
    52   46   48 1   
    53   53   54 1   
    54   53   57 1   
    55   54   55 1   
    56   54   58 1   
    57   54   59 1   
    58   55   56 2   
    59   55   60 1   
    60   60   61 1   
    61   60   68 1   
    62   61   62 1   
    63   61   64 1   
    64   61   69 1   
    65   62   63 2   
    66   62   74 1   
    67   64   65 1   
    68   64   70 1   
    69   64   71 1   
    70   65   66 1   
    71   65   67 2   
    72   66   72 1   
    73   66   73 1   
    74   74   75 1   
    75   74   78 1   
    76   75   76 1   
    77   75   79 1   
    78   75   80 1   
    79   76   77 2   
    80   76   81 1   
    81   81   82 1   
    82   81   93 1   
    83   82   83 1   
    84   82   85 1   
    85   82   94 1   
    86   83   84 2   
    87   83  102 1   
    88   85   86 1   
    89   85   95 1   
    90   85   96 1   
    91   86   87 ar  
    92   86   88 ar  
    93   87   89 ar  
    94   87   97 1   
    95   88   90 ar  
    96   88   98 1   
    97   89   91 ar  
    98   89   99 1   
    99   90   91 ar  
   100   90  100 1   
   101   91   92 1   
   102   92  101 1   
   103  102  103 1   
   104  102  110 1   
   105  103  104 1   
   106  103  106 1   
   107  103  111 1   
   108  104  105 2   
   109  104  121 1   
   110  106  107 1   
   111  106  108 1   
   112  106  112 1   
   113  107  109 1   
   114  107  113 1   
   115  107  114 1   
   116  108  115 1   
   117  108  116 1   
   118  108  117 1   
   119  109  118 1   
   120  109  119 1   
   121  109  120 1   
   122  121  122 1   
   123  121  127 1   
   124  122  123 1   
   125  122  125 1   
   126  122  128 1   
   127  123  124 2   
   128  123  132 1   
   129  125  126 1   
   130  125  129 1   
   131  125  130 1   
   132  126  131 1   
   133  132  133 1   
   134  132  137 1   
   135  133  134 1   
   136  133  136 1   
   137  133  138 1   
   138  134  135 2   
   139  134  142 1   
   140  136  139 1   
   141  136  140 1   
   142  136  141 1   
   143  142  143 1   
   144  142  147 1   
   145  143  144 1   
   146  143  146 1   
   147  143  148 1   
   148  144  145 2   
   149  144  152 1   
   150  146  149 1   
   151  146  150 1   
   152  146  151 1   
   153  152  153 1   
   154  152  161 1   
   155  153  154 1   
   156  153  156 1   
   157  153  162 1   
   158  154  155 2   
   159  154  167 1   
   160  156  157 1   
   161  156  163 1   
   162  156  164 1   
   163  157  158 1   
   164  157  165 1   
   165  157  166 1   
   166  158  159 1   
   167  158  160 1   
   168  167  168 1   
   169  167  172 1   
   170  168  169 1   
   171  168  170 1   
   172  168  171 1   
   173  174  175 1   
   174  174  176 1   
   175  177  178 1   
   176  177  179 1   
   177  180  181 1   
   178  180  182 1   
   179  183  184 1   
   180  183  185 1   
   181  186  187 1   
   182  186  188 1   
@<TRIPOS>SUBSTRUCTURE
     1 MOL         1 TEMP              0 ****  ****    0 ROOT
