@<TRIPOS>MOLECULE
MOL
  189   185     1     0     0
SMALL
resp


@<TRIPOS>ATOM
      1 C1          4.9160    4.5450   -3.2790 c3        1 MOL     -0.303641
      2 C2          5.6110    3.9220   -2.0610 c         1 MOL      0.797604
      3 O1          5.1210    3.8270   -0.9100 o         1 MOL     -0.640437
      4 H1          5.4430    5.4540   -3.5710 hc        1 MOL      0.069187
      5 H2          4.9280    3.8360   -4.1060 hc        1 MOL      0.069187
      6 H3          3.8850    4.7900   -3.0240 hc        1 MOL      0.069187
      7 N1          6.8300    3.4610   -2.3840 n         1 MOL     -0.587034
      8 C3          7.5120    2.4370   -1.6050 c3        1 MOL      0.285538
      9 C4          6.5870    1.2270   -1.4590 c         1 MOL      0.455925
     10 O2          6.1430    0.9030   -0.3940 o         1 MOL     -0.524681
     11 C5          8.1410    2.9240   -0.2820 c3        1 MOL     -0.319636
     12 C6          7.2680    3.7460    0.7780 c         1 MOL      0.685050
     13 O3          6.5590    3.1200    1.6260 o         1 MOL     -0.696283
     14 O4          7.2800    5.0080    0.6880 o         1 MOL     -0.696283
     15 H4          7.1780    3.7140   -3.2970 hn        1 MOL      0.289476
     16 H5          8.3810    2.2070   -2.2270 h1        1 MOL      0.019385
     17 H6          9.0520    3.4860   -0.5130 hc        1 MOL      0.064098
     18 H7          8.5510    2.0290    0.2030 hc        1 MOL      0.064098
     19 N2          6.2690    0.6940   -2.6640 n         1 MOL     -0.758945
     20 C7          5.4790   -0.5210   -2.8970 c3        1 MOL      0.547859
     21 C8          5.9670   -1.8790   -2.3400 c         1 MOL      0.215329
     22 O5          6.2600   -2.7580   -3.1400 o         1 MOL     -0.566864
     23 C9          3.9560   -0.2650   -2.6540 c3        1 MOL      0.080682
     24 C10         3.0040   -1.3540   -3.0750 c3        1 MOL     -0.130311
     25 C11         3.4790    1.0730   -3.2190 c3        1 MOL     -0.574490
     26 C12         2.7640   -1.5430   -4.5640 c3        1 MOL      0.041573
     27 H8          6.5350    1.2650   -3.4560 hn        1 MOL      0.327850
     28 H9          5.5080   -0.6710   -3.9780 h1        1 MOL     -0.065371
     29 H10         3.8120   -0.3130   -1.5810 hc        1 MOL     -0.094014
     30 H11         2.0830   -0.9800   -2.6260 hc        1 MOL      0.076707
     31 H12         3.1330   -2.3350   -2.6220 hc        1 MOL      0.076707
     32 H13         2.4000    1.1450   -3.0550 hc        1 MOL      0.152043
     33 H14         3.9740    1.8660   -2.6570 hc        1 MOL      0.152043
     34 H15         3.7330    1.1590   -4.2780 hc        1 MOL      0.152043
     35 H16         2.8690   -0.6620   -5.2030 hc        1 MOL     -0.023807
     36 H17         3.4580   -2.3160   -4.8950 hc        1 MOL     -0.023807
     37 H18         1.7380   -1.8550   -4.7640 hc        1 MOL     -0.023807
     38 N3          6.2310   -1.9360   -1.0750 n         1 MOL     -0.006102
     39 C13         7.0540   -3.0490   -0.4820 c3        1 MOL      0.000531
     40 C14         6.2990   -4.3660   -0.6480 c         1 MOL      0.758230
     41 O6          7.0060   -5.3610   -0.9180 o         1 MOL     -0.584512
     42 C15         7.5330   -2.6730    0.9600 c3        1 MOL     -0.179870
     43 C16         8.5670   -3.7660    1.3850 c         1 MOL      0.617677
     44 O7          8.1460   -4.7530    2.0550 o         1 MOL     -0.678765
     45 O8          9.7880   -3.5660    1.0620 o         1 MOL     -0.678765
     46 H19         6.0150   -1.1130   -0.5360 hn        1 MOL      0.197917
     47 H20         7.9670   -3.2210   -1.0620 h1        1 MOL      0.023525
     48 H21         6.6970   -2.6440    1.6480 hc        1 MOL      0.036099
     49 H22         8.0270   -1.7080    0.8890 hc        1 MOL      0.036099
     50 N4          4.9710   -4.4800   -0.5320 n         1 MOL     -0.778023
     51 C17         4.1590   -3.4730    0.2170 c3        1 MOL      0.579520
     52 C18         3.0440   -4.1620    0.9960 c         1 MOL      0.606609
     53 O9          2.8680   -5.3660    0.8150 o         1 MOL     -0.614852
     54 H23         4.5190   -5.3600   -0.7370 hn        1 MOL      0.315780
     55 H24         3.7230   -2.7830   -0.4920 h1        1 MOL     -0.085459
     56 H25         4.8510   -3.0150    0.9290 h1        1 MOL     -0.085459
     57 N5          2.4090   -3.5920    1.9810 n         1 MOL     -0.309528
     58 C19         2.7620   -2.3480    2.6210 c3        1 MOL     -0.397022
     59 C20         2.7510   -1.1280    1.6040 c         1 MOL      0.976763
     60 O10         3.7060   -0.3980    1.4150 o         1 MOL     -0.803162
     61 C21         3.9860   -2.5420    3.5110 c3        1 MOL      0.044061
     62 C22         3.8640   -3.7280    4.4390 c         1 MOL      0.656836
     63 O11         4.8650   -4.3840    4.5350 o         1 MOL     -0.688873
     64 O12         2.7670   -3.8750    5.0860 o         1 MOL     -0.688873
     65 H26         1.6440   -4.0700    2.4410 hn        1 MOL      0.242224
     66 H27         1.9400   -2.1500    3.3040 h1        1 MOL      0.040000
     67 H28         4.0920   -1.5930    4.0410 hc        1 MOL     -0.014887
     68 H29         4.9410   -2.5950    2.9830 hc        1 MOL     -0.014887
     69 N6          1.6120   -0.9500    0.9270 n         1 MOL     -0.261440
     70 C23         0.1800   -1.4630    1.0650 c3        1 MOL     -0.529377
     71 C24        -0.2860   -2.5900    0.1560 c         1 MOL      0.821362
     72 O13         0.6590   -3.1610   -0.4640 o         1 MOL     -0.607905
     73 H30         1.7410   -0.1600    0.3120 hn        1 MOL      0.182556
     74 H31        -0.5160   -0.6310    0.9460 h1        1 MOL      0.157459
     75 H32         0.0530   -1.9590    2.0220 h1        1 MOL      0.157459
     76 N7         -1.6040   -2.9030    0.2100 n         1 MOL     -0.538556
     77 C25        -2.1850   -4.1120   -0.4590 c3        1 MOL     -0.030180
     78 C26        -2.9060   -3.8090   -1.6770 c         1 MOL      0.686054
     79 O14        -3.1490   -4.7110   -2.4620 o         1 MOL     -0.543138
     80 C27        -3.0220   -4.9010    0.5840 c3        1 MOL     -0.053530
     81 C28        -4.2150   -4.1250    1.1840 c3        1 MOL     -0.123195
     82 C29        -5.1370   -5.0690    2.0420 c         1 MOL      0.699448
     83 N8         -4.5630   -5.6160    3.0710 n         1 MOL     -0.836724
     84 O15        -6.3510   -5.2580    1.8240 o         1 MOL     -0.553391
     85 H33        -2.2420   -2.3740    0.7850 hn        1 MOL      0.291323
     86 H34        -1.4040   -4.7870   -0.8100 h1        1 MOL      0.109301
     87 H35        -2.3790   -5.2350    1.4060 hc        1 MOL      0.054530
     88 H36        -3.3780   -5.8170    0.1230 hc        1 MOL      0.054530
     89 H37        -4.7680   -3.7210    0.3320 hc        1 MOL      0.026995
     90 H38        -3.7880   -3.3530    1.8230 hc        1 MOL      0.026995
     91 H39        -3.6480   -5.3850    3.3980 hn        1 MOL      0.378796
     92 H40        -5.0890   -6.2600    3.6410 hn        1 MOL      0.378796
     93 N9         -3.2900   -2.5080   -1.9660 n         1 MOL     -0.524765
     94 C30        -3.7470   -2.0370   -3.2980 c3        1 MOL     -0.025328
     95 C31        -5.1460   -1.3370   -3.3070 c         1 MOL      0.430079
     96 O16        -5.6310   -1.0000   -4.3810 o         1 MOL     -0.544942
     97 C32        -2.7550   -1.1070   -3.9670 c3        1 MOL      0.124779
     98 C33        -1.4610   -1.7990   -4.3180 c3        1 MOL     -0.188443
     99 C34        -2.3020    0.1010   -3.1310 c3        1 MOL     -0.188443
    100 H41        -3.0310   -1.7740   -1.3140 hn        1 MOL      0.258843
    101 H42        -3.8430   -2.8310   -4.0480 h1        1 MOL      0.122331
    102 H43        -3.2090   -0.7640   -4.9010 hc        1 MOL      0.022955
    103 H44        -1.6300   -2.8410   -4.6170 hc        1 MOL      0.052584
    104 H45        -1.0670   -1.2780   -5.1860 hc        1 MOL      0.052584
    105 H46        -0.7500   -1.7140   -3.4950 hc        1 MOL      0.052584
    106 H47        -1.5480    0.6810   -3.6730 hc        1 MOL      0.052584
    107 H48        -3.2110    0.6700   -2.9530 hc        1 MOL      0.052584
    108 H49        -1.9280   -0.2130   -2.1530 hc        1 MOL      0.052584
    109 N10        -5.7340   -1.0610   -2.1420 n         1 MOL     -0.178416
    110 C35        -7.1980   -0.5920   -2.0570 c3        1 MOL      0.006938
    111 C36        -7.3650    0.7160   -1.2840 c         1 MOL      0.385778
    112 O17        -8.4260    1.3710   -1.2920 o         1 MOL     -0.535218
    113 C37        -8.0270   -1.7230   -1.4070 c3        1 MOL     -0.221086
    114 C38        -8.2000   -2.9460   -2.2120 c         1 MOL      0.611333
    115 N11        -8.3570   -2.8580   -3.5450 n         1 MOL     -0.771544
    116 O18        -8.1420   -4.0460   -1.7250 o         1 MOL     -0.528441
    117 H50        -5.2970   -1.3030   -1.2610 hn        1 MOL      0.219824
    118 H51        -7.5230   -0.4880   -3.0890 h1        1 MOL      0.087182
    119 H52        -9.0420   -1.3410   -1.2750 hc        1 MOL      0.105426
    120 H53        -7.5600   -2.0270   -0.4800 hc        1 MOL      0.105426
    121 H54        -8.6630   -2.0350   -4.0400 hn        1 MOL      0.350253
    122 H55        -8.3420   -3.7190   -4.0570 hn        1 MOL      0.350253
    123 N12        -6.3540    1.1190   -0.5850 n         1 MOL     -0.241526
    124 C39        -6.3500    2.2920    0.3350 c3        1 MOL      0.214725
    125 C40        -4.9650    2.8790    0.5570 c         1 MOL      0.437722
    126 O19        -3.9990    2.1700    0.2970 o         1 MOL     -0.471428
    127 C41        -7.0080    1.9850    1.7220 c3        1 MOL     -0.141426
    128 C42        -7.9260    0.7950    1.8400 ca        1 MOL      0.047044
    129 C43        -9.3170    0.8980    1.6590 ca        1 MOL     -0.207891
    130 C44        -7.3270   -0.4690    2.1360 ca        1 MOL     -0.207891
    131 C45       -10.0880   -0.2210    1.6250 ca        1 MOL     -0.134764
    132 C46        -8.1400   -1.5880    2.1540 ca        1 MOL     -0.134764
    133 C47        -9.5050   -1.4630    1.8060 ca        1 MOL      0.205047
    134 O20       -10.2310   -2.6520    1.7500 oh        1 MOL     -0.459137
    135 H56        -5.4450    0.7300   -0.7910 hn        1 MOL      0.113928
    136 H57        -6.9190    3.0990   -0.1350 h1        1 MOL      0.021321
    137 H58        -7.7190    2.7910    1.9470 hc        1 MOL      0.060111
    138 H59        -6.2240    1.9700    2.4880 hc        1 MOL      0.060111
    139 H60        -9.7770    1.8480    1.4500 ha        1 MOL      0.148366
    140 H61        -6.2690   -0.6370    2.2930 ha        1 MOL      0.148366
    141 H62       -11.1510   -0.0150    1.5390 ha        1 MOL      0.108612
    142 H63        -7.6690   -2.5300    2.4070 ha        1 MOL      0.108612
    143 H64       -11.1660   -2.4570    1.6400 ho        1 MOL      0.345239
    144 N13        -4.8910    4.1100    1.0220 n         1 MOL     -0.648872
    145 C48        -3.7310    4.7520    1.6660 c3        1 MOL      0.188663
    146 C49        -2.4430    4.9900    0.8060 c         1 MOL      0.149440
    147 O21        -1.7070    5.9150    1.0740 o         1 MOL     -0.495037
    148 C50        -3.3600    4.2300    3.0600 c3        1 MOL     -0.040838
    149 C51        -2.7140    5.2230    4.0270 c3        1 MOL     -0.114535
    150 C52        -2.5240    4.6040    5.4410 c         1 MOL      0.663276
    151 O22        -3.6320    4.5170    6.0970 o         1 MOL     -0.723802
    152 O23        -1.3540    4.3400    5.8270 o         1 MOL     -0.723802
    153 H65        -5.7430    4.6180    1.2120 hn        1 MOL      0.357455
    154 H66        -4.1770    5.7130    1.9110 h1        1 MOL      0.051990
    155 H67        -2.7090    3.3630    2.9640 hc        1 MOL      0.033628
    156 H68        -4.3060    3.8750    3.4710 hc        1 MOL      0.033628
    157 H69        -3.3840    6.0700    4.1590 hc        1 MOL      0.018924
    158 H70        -1.8010    5.7070    3.6820 hc        1 MOL      0.018924
    159 N14        -2.1810    4.2050   -0.1730 n         1 MOL      0.061048
    160 C53        -0.9750    4.3840   -1.0320 c3        1 MOL     -0.098244
    161 C54        -1.2140    5.3410   -2.2470 c         1 MOL      0.432454
    162 O24        -0.2220    5.9070   -2.7570 o         1 MOL     -0.526676
    163 C55        -0.5880    3.0410   -1.6950 c3        1 MOL     -0.103249
    164 C56         0.0370    1.9840   -0.7550 c3        1 MOL      0.322699
    165 C57         1.4840    2.2970   -0.3710 c         1 MOL      0.588975
    166 O25         1.8470    3.3730    0.1150 o         1 MOL     -0.666371
    167 O26         2.3350    1.3570   -0.4550 o         1 MOL     -0.666371
    168 H71        -2.7790    3.4040   -0.2660 hn        1 MOL      0.144449
    169 H72        -0.1150    4.7010   -0.4490 h1        1 MOL      0.154296
    170 H73         0.0660    3.0780   -2.5750 hc        1 MOL      0.009059
    171 H74        -1.4750    2.5610   -2.1230 hc        1 MOL      0.009059
    172 H75        -0.0550    1.0040   -1.2110 hc        1 MOL     -0.110682
    173 H76        -0.5520    1.8850    0.1480 hc        1 MOL     -0.110682
    174 N15        -2.4180    5.5960   -2.7120 n         1 MOL     -0.205173
    175 C58        -2.7860    6.6210   -3.7490 c3        1 MOL     -0.284967
    176 H77        -2.1250    7.4830   -3.6580 h1        1 MOL      0.119117
    177 H78        -2.6810    6.1870   -4.7430 h1        1 MOL      0.119117
    178 H79        -3.8180    6.9370   -3.5980 h1        1 MOL      0.119117
    179 H80        -3.2160    5.1200   -2.3310 hn        1 MOL      0.191149
    180 Ca1         4.1790    2.2520    1.1110 Ca        1 MOL      1.812165
    181 O27         3.9060    4.5760    2.1730 oh        1 MOL     -0.845538
    182 H81         3.1680    5.1680    2.0820 ho        1 MOL      0.418911
    183 H82         4.6210    5.1200    2.5020 ho        1 MOL      0.418911
    184 O28         1.9630    1.7800    2.8180 oh        1 MOL     -0.845538
    185 H83         1.2170    2.3720    2.7660 ho        1 MOL      0.418911
    186 H84         1.5820    0.9310    3.0390 ho        1 MOL      0.418911
    187 O29         4.9830    1.3580    3.3930 oh        1 MOL     -0.845538
    188 H85         4.5140    1.5590    4.1940 ho        1 MOL      0.418911
    189 H86         5.1590    0.4140    3.4470 ho        1 MOL      0.418911
@<TRIPOS>BOND
     1    1    2 1   
     2    1    4 1   
     3    1    5 1   
     4    1    6 1   
     5    2    3 2   
     6    2    7 1   
     7    7    8 1   
     8    7   15 1   
     9    8    9 1   
    10    8   11 1   
    11    8   16 1   
    12    9   10 2   
    13    9   19 1   
    14   11   12 1   
    15   11   17 1   
    16   11   18 1   
    17   12   13 1   
    18   12   14 1   
    19   19   20 1   
    20   19   27 1   
    21   20   21 1   
    22   20   23 1   
    23   20   28 1   
    24   21   22 2   
    25   21   38 1   
    26   23   24 1   
    27   23   25 1   
    28   23   29 1   
    29   24   26 1   
    30   24   30 1   
    31   24   31 1   
    32   25   32 1   
    33   25   33 1   
    34   25   34 1   
    35   26   35 1   
    36   26   36 1   
    37   26   37 1   
    38   38   39 1   
    39   38   46 1   
    40   39   40 1   
    41   39   42 1   
    42   39   47 1   
    43   40   41 2   
    44   40   50 1   
    45   42   43 1   
    46   42   48 1   
    47   42   49 1   
    48   43   44 1   
    49   43   45 1   
    50   50   51 1   
    51   50   54 1   
    52   51   52 1   
    53   51   55 1   
    54   51   56 1   
    55   52   53 2   
    56   52   57 1   
    57   57   58 1   
    58   57   65 1   
    59   58   59 1   
    60   58   61 1   
    61   58   66 1   
    62   59   60 2   
    63   59   69 1   
    64   61   62 1   
    65   61   67 1   
    66   61   68 1   
    67   62   63 1   
    68   62   64 1   
    69   69   70 1   
    70   69   73 1   
    71   70   71 1   
    72   70   74 1   
    73   70   75 1   
    74   71   72 2   
    75   71   76 1   
    76   76   77 1   
    77   76   85 1   
    78   77   78 1   
    79   77   80 1   
    80   77   86 1   
    81   78   79 2   
    82   78   93 1   
    83   80   81 1   
    84   80   87 1   
    85   80   88 1   
    86   81   82 1   
    87   81   89 1   
    88   81   90 1   
    89   82   83 1   
    90   82   84 2   
    91   83   91 1   
    92   83   92 1   
    93   93   94 1   
    94   93  100 1   
    95   94   95 1   
    96   94   97 1   
    97   94  101 1   
    98   95   96 2   
    99   95  109 1   
   100   97   98 1   
   101   97   99 1   
   102   97  102 1   
   103   98  103 1   
   104   98  104 1   
   105   98  105 1   
   106   99  106 1   
   107   99  107 1   
   108   99  108 1   
   109  109  110 1   
   110  109  117 1   
   111  110  111 1   
   112  110  113 1   
   113  110  118 1   
   114  111  112 2   
   115  111  123 1   
   116  113  114 1   
   117  113  119 1   
   118  113  120 1   
   119  114  115 1   
   120  114  116 2   
   121  115  121 1   
   122  115  122 1   
   123  123  124 1   
   124  123  135 1   
   125  124  125 1   
   126  124  127 1   
   127  124  136 1   
   128  125  126 2   
   129  125  144 1   
   130  127  128 1   
   131  127  137 1   
   132  127  138 1   
   133  128  129 ar  
   134  128  130 ar  
   135  129  131 ar  
   136  129  139 1   
   137  130  132 ar  
   138  130  140 1   
   139  131  133 ar  
   140  131  141 1   
   141  132  133 ar  
   142  132  142 1   
   143  133  134 1   
   144  134  143 1   
   145  144  145 1   
   146  144  153 1   
   147  145  146 1   
   148  145  148 1   
   149  145  154 1   
   150  146  147 2   
   151  146  159 1   
   152  148  149 1   
   153  148  155 1   
   154  148  156 1   
   155  149  150 1   
   156  149  157 1   
   157  149  158 1   
   158  150  151 1   
   159  150  152 1   
   160  159  160 1   
   161  159  168 1   
   162  160  161 1   
   163  160  163 1   
   164  160  169 1   
   165  161  162 2   
   166  161  174 1   
   167  163  164 1   
   168  163  170 1   
   169  163  171 1   
   170  164  165 1   
   171  164  172 1   
   172  164  173 1   
   173  165  166 1   
   174  165  167 1   
   175  174  175 1   
   176  174  179 1   
   177  175  176 1   
   178  175  177 1   
   179  175  178 1   
   180  181  182 1   
   181  181  183 1   
   182  184  185 1   
   183  184  186 1   
   184  187  188 1   
   185  187  189 1   
@<TRIPOS>SUBSTRUCTURE
     1 MOL         1 TEMP              0 ****  ****    0 ROOT
