@<TRIPOS>MOLECULE
MOL
  185   180     1     0     0
SMALL
resp


@<TRIPOS>ATOM
      1 C1          4.1030    1.8190    3.1590 c3        1 MOL     -0.416441
      2 C2          5.1890    1.8970    2.0510 c         1 MOL      0.698387
      3 O1          4.9140    1.3900    0.9900 o         1 MOL     -0.481415
      4 H1          3.1690    2.2370    2.7820 hc        1 MOL      0.111332
      5 H2          3.9460    0.7780    3.4420 hc        1 MOL      0.111332
      6 H3          4.4300    2.3880    4.0300 hc        1 MOL      0.111332
      7 N1          6.3060    2.4910    2.2020 n         1 MOL     -0.636613
      8 C3          7.2450    2.9130    1.2020 c3        1 MOL      0.142551
      9 C4          7.7940    1.8310    0.2330 c         1 MOL      0.368452
     10 O2          8.1630    2.1670   -0.9370 o         1 MOL     -0.508404
     11 C5          6.6260    4.1210    0.4010 c3        1 MOL     -0.222957
     12 C6          5.9420    5.2320    1.2520 c         1 MOL      0.700916
     13 O3          5.5200    6.2490    0.6220 o         1 MOL     -0.658323
     14 O4          5.9120    5.1490    2.4830 o         1 MOL     -0.658323
     15 H4          6.4430    2.9950    3.0650 hn        1 MOL      0.332964
     16 H5          8.0990    3.2630    1.7650 h1        1 MOL      0.061088
     17 H6          5.8600    3.7120   -0.2520 hc        1 MOL      0.072985
     18 H7          7.3760    4.5830   -0.2470 hc        1 MOL      0.072985
     19 N2          7.8770    0.5590    0.6560 n         1 MOL     -0.320913
     20 C7          8.2070   -0.5720   -0.2150 c3        1 MOL      0.157773
     21 C8          7.0400   -1.5550   -0.4440 c         1 MOL      0.406896
     22 O5          7.1940   -2.5310   -1.1690 o         1 MOL     -0.557459
     23 C9          9.5280   -1.2130    0.3110 c3        1 MOL     -0.211214
     24 C10        10.7410   -0.3540    0.1430 c3        1 MOL      0.043490
     25 C11        12.0440   -1.2640    0.2250 c3        1 MOL     -0.013130
     26 C12        13.2250   -0.3530    0.4150 c3        1 MOL      0.026210
     27 N3         14.4500   -1.0350    0.1070 n4        1 MOL     -0.214528
     28 H8          7.5930    0.3730    1.6130 hn        1 MOL      0.222609
     29 H9          8.4080   -0.1480   -1.2010 h1        1 MOL      0.128227
     30 H10         9.7520   -2.1310   -0.2280 hc        1 MOL      0.048643
     31 H11         9.5540   -1.3750    1.3890 hc        1 MOL      0.048643
     32 H12        10.7200    0.5030    0.8130 hc        1 MOL      0.015804
     33 H13        10.6990    0.0460   -0.8710 hc        1 MOL      0.015804
     34 H14        12.1510   -1.8820   -0.6670 hc        1 MOL      0.034350
     35 H15        11.9830   -2.0560    0.9750 hc        1 MOL      0.034350
     36 H16        13.2100    0.0330    1.4320 hx        1 MOL      0.073569
     37 H17        13.1490    0.5090   -0.2370 hx        1 MOL      0.073569
     38 H18        14.6130   -1.7990    0.7500 hn        1 MOL      0.249112
     39 H19        14.5070   -1.3510   -0.8530 hn        1 MOL      0.249112
     40 H20        15.2390   -0.4330    0.2540 hn        1 MOL      0.249112
     41 N4          5.8360   -1.2110    0.0290 n         1 MOL     -0.239773
     42 C13         4.5450   -1.8380   -0.3170 c3        1 MOL     -0.218213
     43 C14         4.1740   -1.7140   -1.8170 c         1 MOL      0.740017
     44 O6          4.2990   -0.6490   -2.3820 o         1 MOL     -0.512817
     45 C15         3.4480   -1.2560    0.5680 c3        1 MOL     -0.037282
     46 C16         2.2130   -2.1220    0.7120 c         1 MOL      0.735876
     47 O7          1.8020   -2.5180    1.8140 o         1 MOL     -0.750078
     48 O8          1.7590   -2.7800   -0.2760 o         1 MOL     -0.750078
     49 H21         5.7670   -0.4330    0.6610 hn        1 MOL      0.185494
     50 H22         4.5880   -2.8940   -0.0480 h1        1 MOL      0.066746
     51 H23         3.1770   -0.2790    0.1650 hc        1 MOL      0.028995
     52 H24         3.8330   -1.1070    1.5800 hc        1 MOL      0.028995
     53 N5          3.5920   -2.7900   -2.3920 n         1 MOL     -0.500040
     54 C17         3.0170   -2.8440   -3.7430 c3        1 MOL     -0.130292
     55 C18         1.6890   -2.0960   -3.8750 c         1 MOL      0.444192
     56 O9          1.4170   -1.6900   -5.0010 o         1 MOL     -0.522207
     57 H25         3.6020   -3.6430   -1.8440 hn        1 MOL      0.258105
     58 H26         2.7440   -3.8790   -3.9480 h1        1 MOL      0.106316
     59 H27         3.6210   -2.4400   -4.5600 h1        1 MOL      0.106316
     60 N6          0.8430   -1.9990   -2.8630 n         1 MOL     -0.315597
     61 C19        -0.2830   -1.1420   -2.9190 c3        1 MOL     -0.002818
     62 C20         0.2350    0.3330   -2.8600 c         1 MOL      0.536036
     63 O10        -0.1630    1.2470   -3.5810 o         1 MOL     -0.583854
     64 C21        -1.0600   -1.4240   -1.6370 c3        1 MOL     -0.390763
     65 C22        -1.5510   -2.8730   -1.5570 c         1 MOL      0.781465
     66 N7         -2.5720   -3.2780   -2.3230 n         1 MOL     -0.748051
     67 O11        -0.8690   -3.7220   -0.9550 o         1 MOL     -0.728900
     68 H28         1.0620   -2.6390   -2.1080 hn        1 MOL      0.331123
     69 H29        -0.9270   -1.3240   -3.7750 h1        1 MOL      0.078675
     70 H30        -1.9000   -0.7360   -1.5660 hc        1 MOL      0.137402
     71 H31        -0.4720   -1.2260   -0.7420 hc        1 MOL      0.137402
     72 H32        -3.0510   -2.6390   -2.9320 hn        1 MOL      0.365397
     73 H33        -2.8090   -4.2640   -2.2700 hn        1 MOL      0.365397
     74 N8          1.2700    0.5760   -2.1230 n         1 MOL     -0.103546
     75 C23         1.9570    1.8380   -1.8400 c3        1 MOL     -0.173386
     76 C24         1.1280    2.6780   -0.9110 c         1 MOL      0.628874
     77 O12         0.7680    2.1850    0.1600 o         1 MOL     -0.564608
     78 H34         1.5520   -0.1380   -1.4720 hn        1 MOL      0.146889
     79 H35         2.2070    2.2550   -2.8120 h1        1 MOL      0.102922
     80 H36         2.9320    1.5690   -1.4260 h1        1 MOL      0.102922
     81 N9          0.6020    3.7720   -1.4380 n         1 MOL     -0.654832
     82 C25        -0.4960    4.5520   -0.8560 c3        1 MOL      0.397899
     83 C26        -1.8690    3.8950   -0.7030 c         1 MOL      0.248667
     84 O13        -2.8620    4.5830   -0.7810 o         1 MOL     -0.470664
     85 C27         0.0410    5.2340    0.3810 c3        1 MOL     -0.235943
     86 C28        -0.9370    6.2040    1.0740 ca        1 MOL      0.116691
     87 C29        -1.5830    7.1640    0.3000 ca        1 MOL     -0.216898
     88 C30        -1.1650    6.1270    2.4470 ca        1 MOL     -0.216898
     89 C31        -2.4710    8.0650    0.8590 ca        1 MOL     -0.201169
     90 C32        -2.1510    6.9430    2.9980 ca        1 MOL     -0.201169
     91 C33        -2.7670    7.9320    2.1840 ca        1 MOL      0.314654
     92 O14        -3.5880    8.8750    2.6890 oh        1 MOL     -0.503395
     93 H37         0.7790    4.0430   -2.3930 hn        1 MOL      0.356956
     94 H38        -0.6470    5.3290   -1.6060 h1        1 MOL      0.004693
     95 H39         0.9630    5.7850    0.2000 hc        1 MOL      0.116289
     96 H40         0.2380    4.4670    1.1330 hc        1 MOL      0.116289
     97 H41        -1.4110    7.2600   -0.7520 ha        1 MOL      0.143874
     98 H42        -0.6900    5.3860    3.0650 ha        1 MOL      0.143874
     99 H43        -2.9650    8.7290    0.1510 ha        1 MOL      0.132301
    100 H44        -2.3790    6.9120    4.0550 ha        1 MOL      0.132301
    101 H45        -3.5300    8.9060    3.6500 ho        1 MOL      0.361355
    102 N10        -1.9100    2.6220   -0.2660 n         1 MOL     -0.197877
    103 C34        -3.0060    1.7550    0.0550 c3        1 MOL     -0.328496
    104 C35        -3.9890    1.3620   -1.1550 c         1 MOL      0.306157
    105 O15        -4.3590    0.2510   -1.3340 o         1 MOL     -0.294259
    106 C36        -3.8310    2.2680    1.3110 c3        1 MOL      0.151683
    107 C37        -2.8710    2.5670    2.5530 c3        1 MOL      0.040653
    108 C38        -4.9810    1.2620    1.7260 c3        1 MOL     -0.416699
    109 C39        -3.4400    3.2790    3.7780 c3        1 MOL     -0.171404
    110 H46        -0.9840    2.2590   -0.0830 hn        1 MOL      0.235858
    111 H47        -2.4640    0.9070    0.4800 h1        1 MOL      0.171038
    112 H48        -4.3330    3.1820    1.0220 hc        1 MOL      0.049306
    113 H49        -1.9860    3.1840    2.4330 hc        1 MOL      0.037106
    114 H50        -2.4820    1.5900    2.8600 hc        1 MOL      0.037106
    115 H51        -4.5880    0.2470    1.8300 hc        1 MOL      0.117871
    116 H52        -5.4490    1.5410    2.6700 hc        1 MOL      0.117871
    117 H53        -5.8470    1.2460    1.0590 hc        1 MOL      0.117871
    118 H54        -2.7120    3.2270    4.5850 hc        1 MOL      0.029403
    119 H55        -3.6700    4.3090    3.5000 hc        1 MOL      0.029403
    120 H56        -4.3320    2.8850    4.2490 hc        1 MOL      0.029403
    121 N11        -4.3010    2.3820   -1.9430 n         1 MOL     -0.105809
    122 C40        -5.2250    2.3590   -3.1170 c3        1 MOL     -0.238395
    123 C41        -6.4770    1.6380   -2.7750 c         1 MOL      0.524003
    124 O16        -6.9460    0.7540   -3.4460 o         1 MOL     -0.561629
    125 C42        -5.5000    3.7560   -3.5730 c3        1 MOL      0.240799
    126 O17        -5.7790    4.6130   -2.6210 oh        1 MOL     -0.609474
    127 H57        -4.1510    3.2850   -1.5210 hn        1 MOL      0.200433
    128 H58        -4.8650    1.7580   -3.9420 h1        1 MOL      0.129577
    129 H59        -6.3300    3.8270   -4.2870 h1        1 MOL      0.018347
    130 H60        -4.6930    4.0590   -4.2380 h1        1 MOL      0.018347
    131 H61        -5.3570    5.4640   -2.7130 ho        1 MOL      0.436341
    132 N12        -7.0710    1.9100   -1.6140 n         1 MOL     -0.157152
    133 C43        -8.2430    1.2710   -1.0130 c3        1 MOL      0.242430
    134 C44        -8.1620   -0.2950   -0.8900 c         1 MOL      0.366042
    135 O18        -9.2240   -0.8830   -0.6710 o         1 MOL     -0.552096
    136 C45        -9.4610    1.9690   -1.6990 c3        1 MOL     -0.542931
    137 H62        -6.7850    2.7120   -1.0880 hn        1 MOL      0.165354
    138 H63        -8.2530    1.5860    0.0290 h1        1 MOL      0.038485
    139 H64        -9.2740    3.0190   -1.9020 hc        1 MOL      0.145383
    140 H65        -9.6570    1.4710   -2.6500 hc        1 MOL      0.145383
    141 H66       -10.2520    1.7800   -0.9790 hc        1 MOL      0.145383
    142 N13        -6.9900   -0.8690   -0.9860 n         1 MOL      0.047858
    143 C46        -6.7610   -2.3300   -0.8280 c3        1 MOL      0.088457
    144 C47        -6.2560   -2.7710    0.5580 c         1 MOL      0.343304
    145 O19        -5.4430   -2.0110    1.1960 o         1 MOL     -0.390884
    146 C48        -5.7260   -2.7240   -1.8900 c3        1 MOL     -0.190774
    147 H67        -6.2020   -0.2460   -0.8860 hn        1 MOL     -0.158281
    148 H68        -7.6850   -2.8360   -1.1010 h1        1 MOL      0.039208
    149 H69        -5.6550   -3.8130   -1.9470 hc        1 MOL      0.059168
    150 H70        -5.9380   -2.1650   -2.8010 hc        1 MOL      0.059168
    151 H71        -4.7710   -2.3180   -1.5790 hc        1 MOL      0.059168
    152 N14        -6.4460   -4.0330    1.0170 n         1 MOL     -0.451635
    153 C49        -5.9420   -4.6190    2.2870 c3        1 MOL     -0.270441
    154 C50        -6.4420   -3.9340    3.5830 c         1 MOL      0.511797
    155 O20        -5.8760   -4.0490    4.6430 o         1 MOL     -0.497402
    156 C51        -4.4350   -4.7500    2.3760 c3        1 MOL      0.415546
    157 C52        -3.7530   -5.3680    1.1220 c3        1 MOL     -0.222325
    158 C53        -2.2280   -5.2300    1.2000 c         1 MOL      0.884747
    159 O21        -1.5120   -6.0710    0.7210 o         1 MOL     -0.821542
    160 O22        -1.6730   -4.3200    1.8500 o         1 MOL     -0.821542
    161 H72        -6.9550   -4.6410    0.3860 hn        1 MOL      0.323525
    162 H73        -6.2910   -5.6510    2.3360 h1        1 MOL      0.104080
    163 H74        -4.1560   -5.3550    3.2420 hc        1 MOL     -0.041688
    164 H75        -4.1140   -3.7480    2.6290 hc        1 MOL     -0.041688
    165 H76        -4.1290   -4.9430    0.1900 hc        1 MOL      0.010932
    166 H77        -3.9880   -6.4310    1.0950 hc        1 MOL      0.010932
    167 N15        -7.6370   -3.2680    3.5890 n         1 MOL     -0.289129
    168 C54        -8.1470   -2.4110    4.6780 c3        1 MOL     -0.170912
    169 H78        -8.9710   -1.8040    4.3060 h1        1 MOL      0.092616
    170 H79        -8.4970   -3.0370    5.4990 h1        1 MOL      0.092616
    171 H80        -7.3480   -1.7600    5.0330 h1        1 MOL      0.092616
    172 H81        -8.1510   -3.2380    2.7250 hn        1 MOL      0.231681
    173 Ca1         0.8240   -4.8490    0.7720 Ca        1 MOL      1.774903
    174 O23         3.5230   -5.4210    0.9810 oh        1 MOL     -0.800446
    175 H82         4.2350   -5.3910    0.3300 ho        1 MOL      0.403361
    176 H83         3.9790   -5.4850    1.8240 ho        1 MOL      0.403361
    177 O24         1.4910   -5.6850   -1.5930 oh        1 MOL     -0.800446
    178 H84         2.1540   -6.3590   -1.7130 ho        1 MOL      0.403361
    179 H85         1.0760   -5.5920   -2.4480 ho        1 MOL      0.403361
    180 O25         1.1730   -7.4710    1.0350 oh        1 MOL     -0.800446
    181 H86         1.9740   -8.0030    1.0700 ho        1 MOL      0.403361
    182 H87         0.5290   -8.0380    0.6040 ho        1 MOL      0.403361
    183 O26         0.6060   -5.2640    3.5070 oh        1 MOL     -0.800446
    184 H88        -0.1180   -4.9200    4.0320 ho        1 MOL      0.403361
    185 H89         1.3490   -5.3040    4.1070 ho        1 MOL      0.403361
@<TRIPOS>BOND
     1    1    2 1   
     2    1    4 1   
     3    1    5 1   
     4    1    6 1   
     5    2    3 2   
     6    2    7 1   
     7    7    8 1   
     8    7   15 1   
     9    8    9 1   
    10    8   11 1   
    11    8   16 1   
    12    9   10 2   
    13    9   19 1   
    14   11   12 1   
    15   11   17 1   
    16   11   18 1   
    17   12   13 1   
    18   12   14 1   
    19   19   20 1   
    20   19   28 1   
    21   20   21 1   
    22   20   23 1   
    23   20   29 1   
    24   21   22 2   
    25   21   41 1   
    26   23   24 1   
    27   23   30 1   
    28   23   31 1   
    29   24   25 1   
    30   24   32 1   
    31   24   33 1   
    32   25   26 1   
    33   25   34 1   
    34   25   35 1   
    35   26   27 1   
    36   26   36 1   
    37   26   37 1   
    38   27   38 1   
    39   27   39 1   
    40   27   40 1   
    41   41   42 1   
    42   41   49 1   
    43   42   43 1   
    44   42   45 1   
    45   42   50 1   
    46   43   44 2   
    47   43   53 1   
    48   45   46 1   
    49   45   51 1   
    50   45   52 1   
    51   46   47 1   
    52   46   48 1   
    53   53   54 1   
    54   53   57 1   
    55   54   55 1   
    56   54   58 1   
    57   54   59 1   
    58   55   56 2   
    59   55   60 1   
    60   60   61 1   
    61   60   68 1   
    62   61   62 1   
    63   61   64 1   
    64   61   69 1   
    65   62   63 2   
    66   62   74 1   
    67   64   65 1   
    68   64   70 1   
    69   64   71 1   
    70   65   66 1   
    71   65   67 2   
    72   66   72 1   
    73   66   73 1   
    74   74   75 1   
    75   74   78 1   
    76   75   76 1   
    77   75   79 1   
    78   75   80 1   
    79   76   77 2   
    80   76   81 1   
    81   81   82 1   
    82   81   93 1   
    83   82   83 1   
    84   82   85 1   
    85   82   94 1   
    86   83   84 2   
    87   83  102 1   
    88   85   86 1   
    89   85   95 1   
    90   85   96 1   
    91   86   87 ar  
    92   86   88 ar  
    93   87   89 ar  
    94   87   97 1   
    95   88   90 ar  
    96   88   98 1   
    97   89   91 ar  
    98   89   99 1   
    99   90   91 ar  
   100   90  100 1   
   101   91   92 1   
   102   92  101 1   
   103  102  103 1   
   104  102  110 1   
   105  103  104 1   
   106  103  106 1   
   107  103  111 1   
   108  104  105 2   
   109  104  121 1   
   110  106  107 1   
   111  106  108 1   
   112  106  112 1   
   113  107  109 1   
   114  107  113 1   
   115  107  114 1   
   116  108  115 1   
   117  108  116 1   
   118  108  117 1   
   119  109  118 1   
   120  109  119 1   
   121  109  120 1   
   122  121  122 1   
   123  121  127 1   
   124  122  123 1   
   125  122  125 1   
   126  122  128 1   
   127  123  124 2   
   128  123  132 1   
   129  125  126 1   
   130  125  129 1   
   131  125  130 1   
   132  126  131 1   
   133  132  133 1   
   134  132  137 1   
   135  133  134 1   
   136  133  136 1   
   137  133  138 1   
   138  134  135 2   
   139  134  142 1   
   140  136  139 1   
   141  136  140 1   
   142  136  141 1   
   143  142  143 1   
   144  142  147 1   
   145  143  144 1   
   146  143  146 1   
   147  143  148 1   
   148  144  145 2   
   149  144  152 1   
   150  146  149 1   
   151  146  150 1   
   152  146  151 1   
   153  152  153 1   
   154  152  161 1   
   155  153  154 1   
   156  153  156 1   
   157  153  162 1   
   158  154  155 2   
   159  154  167 1   
   160  156  157 1   
   161  156  163 1   
   162  156  164 1   
   163  157  158 1   
   164  157  165 1   
   165  157  166 1   
   166  158  159 1   
   167  158  160 1   
   168  167  168 1   
   169  167  172 1   
   170  168  169 1   
   171  168  170 1   
   172  168  171 1   
   173  174  175 1   
   174  174  176 1   
   175  177  178 1   
   176  177  179 1   
   177  180  181 1   
   178  180  182 1   
   179  183  184 1   
   180  183  185 1   
@<TRIPOS>SUBSTRUCTURE
     1 MOL         1 TEMP              0 ****  ****    0 ROOT
