@<TRIPOS>MOLECULE
MOL
  182   178     1     0     0
SMALL
resp


@<TRIPOS>ATOM
      1 C1          2.1220   -6.2970    5.1220 c3        1 MOL     -0.363594
      2 C2          1.9270   -5.6010    3.7520 c         1 MOL      0.712244
      3 O1          1.2080   -6.1030    2.8860 o         1 MOL     -0.604720
      4 H1          3.1870   -6.4020    5.3270 hc        1 MOL      0.096157
      5 H2          1.6600   -5.6960    5.9060 hc        1 MOL      0.096157
      6 H3          1.6580   -7.2840    5.0990 hc        1 MOL      0.096157
      7 N1          2.6210   -4.5450    3.5520 n         1 MOL     -0.535331
      8 C3          2.7610   -3.8100    2.2820 c3        1 MOL      0.111252
      9 C4          3.5760   -4.5310    1.1910 c         1 MOL      0.521613
     10 O2          4.7390   -4.8780    1.4300 o         1 MOL     -0.505648
     11 C5          3.3690   -2.4350    2.5610 c3        1 MOL      0.137355
     12 C6          3.3900   -1.3920    1.4260 c         1 MOL      0.336583
     13 O3          3.5300   -0.1960    1.7170 o         1 MOL     -0.632209
     14 O4          3.4850   -1.6710    0.2280 o         1 MOL     -0.632209
     15 H4          3.2060   -4.2480    4.3230 hn        1 MOL      0.281670
     16 H5          1.7660   -3.6910    1.8580 h1        1 MOL      0.032049
     17 H6          4.4110   -2.6370    2.8180 hc        1 MOL      0.009143
     18 H7          2.8590   -1.9660    3.4010 hc        1 MOL      0.009143
     19 N2          2.9750   -4.7280   -0.0520 n         1 MOL     -0.305485
     20 C7          3.5630   -5.4280   -1.2210 c3        1 MOL      0.027453
     21 C8          4.8280   -4.8070   -1.8490 c         1 MOL      0.500169
     22 O5          5.5590   -5.4210   -2.5870 o         1 MOL     -0.551410
     23 C9          2.4270   -5.6620   -2.2230 c3        1 MOL     -0.164490
     24 C10         1.7830   -4.4020   -2.7070 c3        1 MOL      0.122321
     25 C11         0.7580   -4.8530   -3.7550 c3        1 MOL     -0.078845
     26 C12        -0.1980   -3.6370   -3.9580 c3        1 MOL      0.260208
     27 N3         -1.3860   -4.0620   -4.7590 n4        1 MOL     -0.262476
     28 H8          2.0580   -4.3190   -0.1530 hn        1 MOL      0.135233
     29 H9          3.8760   -6.4450   -0.9930 h1        1 MOL      0.092045
     30 H10         1.7560   -6.3630   -1.7220 hc        1 MOL      0.062518
     31 H11         2.8400   -6.2290   -3.0620 hc        1 MOL      0.062518
     32 H12         2.4780   -3.7390   -3.2140 hc        1 MOL      0.019428
     33 H13         1.3180   -3.9590   -1.8270 hc        1 MOL      0.019428
     34 H14         0.0900   -5.6500   -3.4480 hc        1 MOL      0.030032
     35 H15         1.1880   -5.0650   -4.7340 hc        1 MOL      0.030032
     36 H16         0.3100   -2.8190   -4.4600 hx        1 MOL     -0.042796
     37 H17        -0.4760   -3.2980   -2.9600 hx        1 MOL     -0.042796
     38 H18        -1.1250   -4.7070   -5.4840 hn        1 MOL      0.243458
     39 H19        -2.1170   -4.5040   -4.2200 hn        1 MOL      0.243458
     40 H20        -1.7270   -3.2240   -5.2110 hn        1 MOL      0.243458
     41 N4          5.1830   -3.5550   -1.5060 n         1 MOL     -0.337655
     42 C13         6.3960   -2.8560   -2.0300 c3        1 MOL      0.278927
     43 C14         7.1660   -2.1030   -0.9020 c         1 MOL      0.305158
     44 O6          8.1550   -1.4420   -1.1060 o         1 MOL     -0.516567
     45 C15         5.9580   -2.0320   -3.2010 c3        1 MOL     -0.481522
     46 C16         4.8730   -0.9680   -2.7500 c         1 MOL      1.027577
     47 O7          3.6630   -1.1010   -3.0830 o         1 MOL     -0.807705
     48 O8          5.3610   -0.0900   -2.0530 o         1 MOL     -0.807705
     49 H21         4.5690   -3.0300   -0.8990 hn        1 MOL      0.114207
     50 H22         7.1270   -3.5900   -2.3620 h1        1 MOL      0.093475
     51 H23         5.4310   -2.6700   -3.9250 hc        1 MOL      0.106971
     52 H24         6.8270   -1.5130   -3.5890 hc        1 MOL      0.106971
     53 N5          6.6080   -2.2030    0.3190 n         1 MOL     -0.107088
     54 C17         6.9880   -1.4960    1.5970 c3        1 MOL     -0.007536
     55 C18         6.9450    0.0660    1.5990 c         1 MOL      0.406355
     56 O9          7.2740    0.7290    2.6170 o         1 MOL     -0.566174
     57 H25         5.7680   -2.7700    0.4020 hn        1 MOL      0.047517
     58 H26         7.9720   -1.8510    1.9300 h1        1 MOL      0.077882
     59 H27         6.4240   -1.9360    2.4180 h1        1 MOL      0.077882
     60 N6          6.6510    0.7380    0.5120 n         1 MOL     -0.146537
     61 C19         6.8940    2.2720    0.4320 c3        1 MOL      0.027196
     62 C20         5.5820    3.0200    0.1920 c         1 MOL      0.460436
     63 O10         4.6140    2.3940   -0.2000 o         1 MOL     -0.464849
     64 C21         7.9380    2.5160   -0.6740 c3        1 MOL     -0.272715
     65 C22         9.3940    2.1700   -0.2340 c         1 MOL      0.655491
     66 N7          9.7850    0.8790   -0.2610 n         1 MOL     -0.834223
     67 O11        10.1950    3.0000    0.1640 o         1 MOL     -0.563694
     68 H28         6.3210    0.2700   -0.3220 hn        1 MOL      0.245055
     69 H29         7.3480    2.6520    1.3410 h1        1 MOL      0.098642
     70 H30         7.9720    3.5640   -0.9860 hc        1 MOL      0.087571
     71 H31         7.7150    1.9780   -1.5950 hc        1 MOL      0.087571
     72 H32         9.1250    0.1690   -0.5300 hn        1 MOL      0.385240
     73 H33        10.6070    0.7020    0.2990 hn        1 MOL      0.385240
     74 N8          5.5500    4.3430    0.4220 n         1 MOL     -0.304514
     75 C23         4.5010    5.2910    0.0320 c3        1 MOL     -0.246177
     76 C24         3.2460    5.0880    0.8500 c         1 MOL      0.704083
     77 O12         3.2600    4.9220    2.0370 o         1 MOL     -0.515808
     78 H34         6.2160    4.6970    1.0990 hn        1 MOL      0.284597
     79 H35         4.2150    5.1310   -1.0120 h1        1 MOL      0.114295
     80 H36         4.8570    6.3150    0.1740 h1        1 MOL      0.114295
     81 N9          2.1090    5.1310    0.1820 n         1 MOL     -0.575545
     82 C25         0.8950    4.6320    0.7780 c3        1 MOL      0.056710
     83 C26         0.9410    3.1070    1.1330 c         1 MOL      0.442201
     84 O13         1.8150    2.3460    0.6950 o         1 MOL     -0.470915
     85 C27        -0.3940    4.8960   -0.1250 c3        1 MOL     -0.093483
     86 C28        -0.6130    6.3750   -0.5350 ca        1 MOL      0.071081
     87 C29        -0.6080    7.3290    0.4940 ca        1 MOL     -0.148885
     88 C30        -0.8710    6.6860   -1.8160 ca        1 MOL     -0.148885
     89 C31        -0.8670    8.6790    0.2070 ca        1 MOL     -0.271186
     90 C32        -1.1480    8.0460   -2.0920 ca        1 MOL     -0.271186
     91 C33        -1.1060    9.0390   -1.0720 ca        1 MOL      0.374436
     92 O14        -1.3190   10.3300   -1.3370 oh        1 MOL     -0.498259
     93 H37         2.2090    4.9010   -0.8000 hn        1 MOL      0.294893
     94 H38         0.6540    5.2030    1.6850 h1        1 MOL      0.101295
     95 H39        -1.3560    4.5470    0.2590 hc        1 MOL      0.031418
     96 H40        -0.3400    4.2700   -1.0180 hc        1 MOL      0.031418
     97 H41        -0.4680    7.0160    1.5180 ha        1 MOL      0.127743
     98 H42        -0.9720    5.9190   -2.5790 ha        1 MOL      0.127743
     99 H43        -0.9520    9.4330    0.9710 ha        1 MOL      0.155975
    100 H44        -1.5560    8.3410   -3.0420 ha        1 MOL      0.155975
    101 H45        -1.3730   10.8300   -0.5200 ho        1 MOL      0.382146
    102 N10        -0.0380    2.6490    1.9230 n         1 MOL     -0.417335
    103 C34        -0.1930    1.2710    2.3510 c3        1 MOL     -0.105042
    104 C35        -0.2800    0.2530    1.1680 c         1 MOL      0.416893
    105 O15         0.7110   -0.0470    0.4980 o         1 MOL     -0.297747
    106 C36         0.6100    0.9980    3.6380 c3        1 MOL      0.358799
    107 C37         0.0350   -0.3060    4.2080 c3        1 MOL      0.120992
    108 C38         0.8090    2.1850    4.6510 c3        1 MOL     -0.492750
    109 C39         0.6540   -1.0310    5.3950 c3        1 MOL     -0.098282
    110 H46        -0.7450    3.2910    2.2280 hn        1 MOL      0.282859
    111 H47        -1.2310    1.3680    2.6660 h1        1 MOL      0.075770
    112 H48         1.6090    0.6690    3.3330 hc        1 MOL      0.000904
    113 H49        -0.0180   -1.1090    3.4620 hc        1 MOL     -0.066049
    114 H50        -0.9870   -0.0100    4.4640 hc        1 MOL     -0.066049
    115 H51        -0.0200    2.8950    4.6720 hc        1 MOL      0.126536
    116 H52         1.0260    1.7180    5.6090 hc        1 MOL      0.126536
    117 H53         1.5930    2.8170    4.2280 hc        1 MOL      0.126536
    118 H54         0.6180   -0.2960    6.2000 hc        1 MOL      0.021237
    119 H55         0.1680   -1.9670    5.6490 hc        1 MOL      0.021237
    120 H56         1.6900   -1.2690    5.1630 hc        1 MOL      0.021237
    121 N11        -1.4680   -0.3660    1.0550 n         1 MOL     -0.444725
    122 C40        -1.9980   -1.2270   -0.0640 c3        1 MOL      0.117138
    123 C41        -3.5370   -1.1680   -0.4160 c         1 MOL      0.510643
    124 O16        -3.8910   -1.7200   -1.4240 o         1 MOL     -0.529082
    125 C42        -1.6110   -2.6890    0.1500 c3        1 MOL     -0.000216
    126 O17        -0.2180   -2.8050   -0.1680 oh        1 MOL     -0.345456
    127 H57        -2.1740   -0.0060    1.6810 hn        1 MOL      0.233021
    128 H58        -1.4830   -0.9710   -0.9890 h1        1 MOL      0.015870
    129 H59        -2.2090   -3.4340   -0.3660 h1        1 MOL      0.086737
    130 H60        -1.6950   -2.9280    1.2100 h1        1 MOL      0.086737
    131 H61         0.1380   -1.9320   -0.3240 ho        1 MOL      0.246843
    132 N12        -4.3900   -0.5480    0.4140 n         1 MOL     -0.532319
    133 C43        -5.8330   -0.4570    0.1690 c3        1 MOL      0.140643
    134 C44        -6.1610    0.5940   -0.9340 c         1 MOL      0.667094
    135 O18        -5.4290    1.5250   -1.1670 o         1 MOL     -0.596969
    136 C45        -6.4840   -0.1520    1.5580 c3        1 MOL     -0.367334
    137 H62        -3.9710    0.0910    1.0770 hn        1 MOL      0.300084
    138 H63        -6.1940   -1.4400   -0.1190 h1        1 MOL      0.117871
    139 H64        -6.1130    0.8280    1.8770 hc        1 MOL      0.113818
    140 H65        -7.5440    0.0170    1.3740 hc        1 MOL      0.113818
    141 H66        -6.3440   -0.9860    2.2480 hc        1 MOL      0.113818
    142 N13        -7.2480    0.5340   -1.7010 n         1 MOL     -0.652430
    143 C46        -8.2980   -0.5200   -1.5640 c3        1 MOL      0.343018
    144 C47        -9.6530    0.0860   -1.8070 c         1 MOL      0.248829
    145 O19        -9.7690    1.0920   -2.5210 o         1 MOL     -0.502850
    146 C48        -8.1230   -1.4840   -2.6710 c3        1 MOL     -0.225924
    147 H67        -7.2760    1.2120   -2.4450 hn        1 MOL      0.372330
    148 H68        -8.2780   -1.1260   -0.6630 h1        1 MOL     -0.005621
    149 H69        -7.9390   -0.9620   -3.6120 hc        1 MOL      0.061600
    150 H70        -7.1940   -2.0270   -2.5050 hc        1 MOL      0.061600
    151 H71        -8.9830   -2.1540   -2.6520 hc        1 MOL      0.061600
    152 N14       -10.7280   -0.4340   -1.2430 n         1 MOL     -0.212952
    153 C49       -10.8460   -1.2630    0.0090 c3        1 MOL     -0.105174
    154 C50       -10.4360   -0.5240    1.2350 c         1 MOL      0.581055
    155 O20        -9.8400   -1.1550    2.1220 o         1 MOL     -0.571238
    156 C51       -12.2580   -1.8990    0.1800 c3        1 MOL     -0.136233
    157 C52       -13.4070   -0.8590    0.0050 c3        1 MOL     -0.136849
    158 C53       -14.7730   -1.4550    0.4140 c         1 MOL      0.665180
    159 O21       -15.5760   -1.7650   -0.5540 o         1 MOL     -0.636555
    160 O22       -15.1410   -1.5320    1.5950 o         1 MOL     -0.636555
    161 H72       -11.5830    0.0440   -1.4780 hn        1 MOL      0.248587
    162 H73       -10.1710   -2.1240    0.0150 h1        1 MOL      0.084801
    163 H74       -12.1940   -2.2390    1.2120 hc        1 MOL      0.079362
    164 H75       -12.3340   -2.7020   -0.5570 hc        1 MOL      0.079362
    165 H76       -13.4040   -0.5800   -1.0550 hc        1 MOL      0.016055
    166 H77       -13.1750   -0.0280    0.6700 hc        1 MOL      0.016055
    167 N15       -10.5440    0.7970    1.3360 n         1 MOL     -0.207026
    168 C54        -9.9950    1.6570    2.3630 c3        1 MOL     -0.281235
    169 H78       -10.1580    1.2040    3.3410 h1        1 MOL      0.116839
    170 H79        -8.9260    1.7870    2.1970 h1        1 MOL      0.116839
    171 H80       -10.4890    2.6280    2.3270 h1        1 MOL      0.116839
    172 H81       -11.0540    1.2920    0.6130 hn        1 MOL      0.228286
    173 Ca1         2.8980    0.6050   -1.0820 Ca        1 MOL      1.671193
    174 O23         1.0370   -0.8980   -2.2490 oh        1 MOL     -0.859315
    175 H82         1.5820   -1.3430   -2.8970 ho        1 MOL      0.419785
    176 H83         0.2580   -0.6210   -2.7340 ho        1 MOL      0.419785
    177 O24         0.8310    2.1450   -2.2000 oh        1 MOL     -0.859315
    178 H84        -0.0320    2.1560   -1.7630 ho        1 MOL      0.419785
    179 H85         0.6610    2.4750   -3.0800 ho        1 MOL      0.419785
    180 O25         3.5500    1.9490   -3.3170 oh        1 MOL     -0.859315
    181 H86         4.0920    1.9220   -4.1140 ho        1 MOL      0.419785
    182 H87         2.9510    2.6780   -3.4660 ho        1 MOL      0.419785
@<TRIPOS>BOND
     1    1    2 1   
     2    1    4 1   
     3    1    5 1   
     4    1    6 1   
     5    2    3 2   
     6    2    7 1   
     7    7    8 1   
     8    7   15 1   
     9    8    9 1   
    10    8   11 1   
    11    8   16 1   
    12    9   10 2   
    13    9   19 1   
    14   11   12 1   
    15   11   17 1   
    16   11   18 1   
    17   12   13 1   
    18   12   14 1   
    19   19   20 1   
    20   19   28 1   
    21   20   21 1   
    22   20   23 1   
    23   20   29 1   
    24   21   22 2   
    25   21   41 1   
    26   23   24 1   
    27   23   30 1   
    28   23   31 1   
    29   24   25 1   
    30   24   32 1   
    31   24   33 1   
    32   25   26 1   
    33   25   34 1   
    34   25   35 1   
    35   26   27 1   
    36   26   36 1   
    37   26   37 1   
    38   27   38 1   
    39   27   39 1   
    40   27   40 1   
    41   41   42 1   
    42   41   49 1   
    43   42   43 1   
    44   42   45 1   
    45   42   50 1   
    46   43   44 2   
    47   43   53 1   
    48   45   46 1   
    49   45   51 1   
    50   45   52 1   
    51   46   47 1   
    52   46   48 1   
    53   53   54 1   
    54   53   57 1   
    55   54   55 1   
    56   54   58 1   
    57   54   59 1   
    58   55   56 2   
    59   55   60 1   
    60   60   61 1   
    61   60   68 1   
    62   61   62 1   
    63   61   64 1   
    64   61   69 1   
    65   62   63 2   
    66   62   74 1   
    67   64   65 1   
    68   64   70 1   
    69   64   71 1   
    70   65   66 1   
    71   65   67 2   
    72   66   72 1   
    73   66   73 1   
    74   74   75 1   
    75   74   78 1   
    76   75   76 1   
    77   75   79 1   
    78   75   80 1   
    79   76   77 2   
    80   76   81 1   
    81   81   82 1   
    82   81   93 1   
    83   82   83 1   
    84   82   85 1   
    85   82   94 1   
    86   83   84 2   
    87   83  102 1   
    88   85   86 1   
    89   85   95 1   
    90   85   96 1   
    91   86   87 ar  
    92   86   88 ar  
    93   87   89 ar  
    94   87   97 1   
    95   88   90 ar  
    96   88   98 1   
    97   89   91 ar  
    98   89   99 1   
    99   90   91 ar  
   100   90  100 1   
   101   91   92 1   
   102   92  101 1   
   103  102  103 1   
   104  102  110 1   
   105  103  104 1   
   106  103  106 1   
   107  103  111 1   
   108  104  105 2   
   109  104  121 1   
   110  106  107 1   
   111  106  108 1   
   112  106  112 1   
   113  107  109 1   
   114  107  113 1   
   115  107  114 1   
   116  108  115 1   
   117  108  116 1   
   118  108  117 1   
   119  109  118 1   
   120  109  119 1   
   121  109  120 1   
   122  121  122 1   
   123  121  127 1   
   124  122  123 1   
   125  122  125 1   
   126  122  128 1   
   127  123  124 2   
   128  123  132 1   
   129  125  126 1   
   130  125  129 1   
   131  125  130 1   
   132  126  131 1   
   133  132  133 1   
   134  132  137 1   
   135  133  134 1   
   136  133  136 1   
   137  133  138 1   
   138  134  135 2   
   139  134  142 1   
   140  136  139 1   
   141  136  140 1   
   142  136  141 1   
   143  142  143 1   
   144  142  147 1   
   145  143  144 1   
   146  143  146 1   
   147  143  148 1   
   148  144  145 2   
   149  144  152 1   
   150  146  149 1   
   151  146  150 1   
   152  146  151 1   
   153  152  153 1   
   154  152  161 1   
   155  153  154 1   
   156  153  156 1   
   157  153  162 1   
   158  154  155 2   
   159  154  167 1   
   160  156  157 1   
   161  156  163 1   
   162  156  164 1   
   163  157  158 1   
   164  157  165 1   
   165  157  166 1   
   166  158  159 1   
   167  158  160 1   
   168  167  168 1   
   169  167  172 1   
   170  168  169 1   
   171  168  170 1   
   172  168  171 1   
   173  174  175 1   
   174  174  176 1   
   175  177  178 1   
   176  177  179 1   
   177  180  181 1   
   178  180  182 1   
@<TRIPOS>SUBSTRUCTURE
     1 MOL         1 TEMP              0 ****  ****    0 ROOT
