@<TRIPOS>MOLECULE
MOL
  189   185     1     0     0
SMALL
resp


@<TRIPOS>ATOM
      1 C1          5.0620    4.1000   -3.6690 c3        1 MOL     -0.406105
      2 C2          5.6450    3.0990   -2.5730 c         1 MOL      0.889019
      3 O1          5.0680    2.9470   -1.5360 o         1 MOL     -0.680919
      4 H1          3.9720    4.0610   -3.6520 hc        1 MOL      0.100013
      5 H2          5.3910    5.1150   -3.4480 hc        1 MOL      0.100013
      6 H3          5.4200    3.8080   -4.6560 hc        1 MOL      0.100013
      7 N1          6.8150    2.5410   -2.8330 n         1 MOL     -0.807344
      8 C3          7.4450    1.4980   -2.1020 c3        1 MOL      0.402158
      9 C4          6.4820    0.3380   -1.7960 c         1 MOL      0.300584
     10 O2          5.9170    0.1630   -0.6810 o         1 MOL     -0.593646
     11 C5          8.2970    2.0350   -0.8850 c3        1 MOL     -0.209739
     12 C6          7.6820    2.9820    0.0800 c         1 MOL      0.831469
     13 O3          6.7180    2.7790    0.8890 o         1 MOL     -0.747899
     14 O4          8.2550    4.1010    0.2300 o         1 MOL     -0.747899
     15 H4          7.1660    2.6700   -3.7730 hn        1 MOL      0.348012
     16 H5          8.2040    1.0760   -2.7690 h1        1 MOL     -0.000986
     17 H6          9.2370    2.4670   -1.2200 hc        1 MOL      0.037641
     18 H7          8.4960    1.1270   -0.3110 hc        1 MOL      0.037641
     19 N2          6.2020   -0.4040   -2.8610 n         1 MOL     -0.448607
     20 C7          5.3410   -1.6270   -2.8930 c3        1 MOL      0.042720
     21 C8          5.8670   -2.7710   -1.9840 c         1 MOL      0.423332
     22 O5          6.0490   -3.8960   -2.4160 o         1 MOL     -0.543766
     23 C9          3.8350   -1.3460   -2.5530 c3        1 MOL      0.399858
     24 C10         2.8320   -2.5340   -2.9700 c3        1 MOL     -0.044172
     25 C11         3.2810   -0.0580   -3.1250 c3        1 MOL     -0.391769
     26 C12         3.0450   -3.0660   -4.3920 c3        1 MOL     -0.044696
     27 H8          6.4110   -0.0400   -3.7760 hn        1 MOL      0.286993
     28 H9          5.4710   -1.9320   -3.9320 h1        1 MOL      0.048040
     29 H10         3.6590   -1.2550   -1.4860 hc        1 MOL     -0.170623
     30 H11         1.7910   -2.2440   -2.8390 hc        1 MOL      0.050400
     31 H12         3.0770   -3.3330   -2.2740 hc        1 MOL      0.050400
     32 H13         2.2800   -0.0900   -2.7050 hc        1 MOL      0.067950
     33 H14         3.8370    0.8320   -2.8360 hc        1 MOL      0.067950
     34 H15         3.2820   -0.0550   -4.2170 hc        1 MOL      0.067950
     35 H16         3.9720   -3.6410   -4.3360 hc        1 MOL     -0.016185
     36 H17         2.2100   -3.7240   -4.6470 hc        1 MOL     -0.016185
     37 H18         3.1840   -2.2440   -5.0870 hc        1 MOL     -0.016185
     38 N3          6.1140   -2.5280   -0.6900 n         1 MOL     -0.312786
     39 C13         6.5630   -3.4380    0.3990 c3        1 MOL      0.007395
     40 C14         5.6870   -4.6710    0.4760 c         1 MOL      0.614532
     41 O6          6.2710   -5.7860    0.4400 o         1 MOL     -0.593117
     42 C15         6.8420   -2.7070    1.7330 c3        1 MOL     -0.335028
     43 C16         7.8850   -1.5650    1.7320 c         1 MOL      0.839620
     44 O7          7.8110   -0.7020    2.6050 o         1 MOL     -0.737464
     45 O8          8.8770   -1.7380    0.9670 o         1 MOL     -0.737464
     46 H19         5.9770   -1.5640   -0.4460 hn        1 MOL      0.387815
     47 H20         7.4440   -3.9710    0.0430 h1        1 MOL      0.059982
     48 H21         7.0770   -3.5540    2.3730 hc        1 MOL      0.108319
     49 H22         5.9090   -2.2670    2.0930 hc        1 MOL      0.108319
     50 N4          4.3650   -4.6290    0.7520 n         1 MOL     -0.520964
     51 C17         3.5960   -3.6260    1.3530 c3        1 MOL      0.217029
     52 C18         2.1770   -3.9900    1.9600 c         1 MOL      0.589987
     53 O9          1.6680   -5.0440    1.6240 o         1 MOL     -0.568295
     54 H23         3.9970   -5.5670    0.7260 hn        1 MOL      0.258000
     55 H24         3.4070   -2.8160    0.6520 h1        1 MOL     -0.001660
     56 H25         4.2710   -3.3290    2.1620 h1        1 MOL     -0.001660
     57 N5          1.4710   -3.1220    2.7420 n         1 MOL     -0.488909
     58 C19         1.7960   -1.6920    2.9770 c3        1 MOL     -0.070800
     59 C20         2.0530   -0.9930    1.5990 c         1 MOL      0.604195
     60 O10         3.1100   -0.4390    1.3840 o         1 MOL     -0.597325
     61 C21         2.7590   -1.4930    4.1370 c3        1 MOL     -0.256813
     62 C22         2.5420   -2.4160    5.3890 c         1 MOL      0.756869
     63 O11         3.5460   -2.9480    5.8970 o         1 MOL     -0.723197
     64 O12         1.4090   -2.5490    5.8830 o         1 MOL     -0.723197
     65 H26         0.5880   -3.4320    3.1250 hn        1 MOL      0.292151
     66 H27         0.8940   -1.1650    3.2780 h1        1 MOL      0.103838
     67 H28         2.7400   -0.4300    4.4040 hc        1 MOL      0.050756
     68 H29         3.7300   -1.8580    3.8190 hc        1 MOL      0.050756
     69 N6          1.2120   -1.1110    0.5510 n         1 MOL     -0.438089
     70 C23        -0.2300   -1.3790    0.6650 c3        1 MOL     -0.071281
     71 C24        -0.7430   -2.6720   -0.0380 c         1 MOL      0.550993
     72 O13        -0.3050   -3.0020   -1.1710 o         1 MOL     -0.522254
     73 H30         1.5160   -0.5900   -0.2490 hn        1 MOL      0.327037
     74 H31        -0.8800   -0.5370    0.4330 h1        1 MOL      0.084025
     75 H32        -0.5070   -1.4590    1.7160 h1        1 MOL      0.084025
     76 N7         -1.8800   -3.2840    0.4670 n         1 MOL     -0.491868
     77 C25        -2.5660   -4.3500   -0.1870 c3        1 MOL     -0.037633
     78 C26        -3.2910   -4.0500   -1.5060 c         1 MOL      0.544323
     79 O14        -3.7350   -5.0150   -2.1490 o         1 MOL     -0.556918
     80 C27        -3.3230   -5.1310    0.8680 c3        1 MOL     -0.060041
     81 C28        -4.5110   -4.3240    1.4910 c3        1 MOL     -0.287968
     82 C29        -5.6520   -3.9730    0.5640 c         1 MOL      0.444636
     83 N8         -6.5550   -4.7940    0.2680 n         1 MOL     -0.527877
     84 O15        -5.7830   -2.8950    0.1360 o         1 MOL     -0.535022
     85 H33        -2.1450   -2.9980    1.4050 hn        1 MOL      0.316680
     86 H34        -1.7970   -5.0090   -0.5980 h1        1 MOL      0.140710
     87 H35        -2.7520   -5.4930    1.7250 hc        1 MOL      0.074986
     88 H36        -3.6360   -6.0600    0.3940 hc        1 MOL      0.074986
     89 H37        -4.1960   -3.3150    1.7560 hc        1 MOL      0.112124
     90 H38        -4.9760   -4.8140    2.3530 hc        1 MOL      0.112124
     91 H39        -6.6560   -5.6180    0.8410 hn        1 MOL      0.285625
     92 H40        -7.3110   -4.3850   -0.2680 hn        1 MOL      0.285625
     93 N9         -3.3720   -2.7840   -1.9210 n         1 MOL     -0.373727
     94 C30        -3.8200   -2.4160   -3.2630 c3        1 MOL      0.028598
     95 C31        -5.0940   -1.5510   -3.2820 c         1 MOL      0.318935
     96 O16        -5.2990   -0.8880   -4.3090 o         1 MOL     -0.517611
     97 C32        -2.6860   -1.8780   -4.0740 c3        1 MOL      0.234776
     98 C33        -1.6540   -2.9270   -4.3780 c3        1 MOL     -0.251915
     99 C34        -1.9670   -0.6310   -3.4380 c3        1 MOL     -0.251915
    100 H41        -2.9030   -2.0520   -1.3950 hn        1 MOL      0.208193
    101 H42        -4.1590   -3.2750   -3.8390 h1        1 MOL      0.095677
    102 H43        -3.1000   -1.6170   -5.0370 hc        1 MOL     -0.028569
    103 H44        -1.2530   -3.3310   -3.4550 hc        1 MOL      0.062795
    104 H45        -2.0670   -3.8060   -4.8800 hc        1 MOL      0.062795
    105 H46        -0.8250   -2.5570   -4.9700 hc        1 MOL      0.062795
    106 H47        -1.6990   -0.8840   -2.4090 hc        1 MOL      0.062795
    107 H48        -1.1480   -0.2710   -4.0560 hc        1 MOL      0.062795
    108 H49        -2.7600    0.1000   -3.5610 hc        1 MOL      0.062795
    109 N10        -5.9040   -1.4390   -2.1950 n         1 MOL     -0.150498
    110 C35        -7.1260   -0.5930   -2.2280 c3        1 MOL     -0.060813
    111 C36        -7.0090    0.8250   -1.6180 c         1 MOL      0.638677
    112 O17        -7.8880    1.6230   -1.8740 o         1 MOL     -0.577075
    113 C37        -8.3150   -1.2680   -1.5160 c3        1 MOL     -0.106271
    114 C38        -8.8500   -2.6070   -2.0910 c         1 MOL      0.487651
    115 N11        -9.2370   -2.5920   -3.3800 n         1 MOL     -0.665233
    116 O18        -8.7260   -3.6200   -1.4390 o         1 MOL     -0.481998
    117 H50        -5.7650   -1.9590   -1.3430 hn        1 MOL      0.305998
    118 H51        -7.3140   -0.4030   -3.2880 h1        1 MOL      0.057248
    119 H52        -9.0850   -0.5030   -1.4560 hc        1 MOL      0.034573
    120 H53        -8.0360   -1.3850   -0.4760 hc        1 MOL      0.034573
    121 H54        -9.3230   -1.7160   -3.8710 hn        1 MOL      0.334421
    122 H55        -9.6850   -3.4080   -3.7630 hn        1 MOL      0.334421
    123 N12        -6.0280    1.0580   -0.7610 n         1 MOL     -0.513751
    124 C39        -5.8440    2.2990    0.0200 c3        1 MOL      0.290036
    125 C40        -4.4390    2.8970    0.2670 c         1 MOL      0.412426
    126 O19        -3.4100    2.2240    0.4140 o         1 MOL     -0.418320
    127 C41        -6.7050    2.1110    1.3160 c3        1 MOL      0.070958
    128 C42        -6.3160    0.9870    2.2750 ca        1 MOL     -0.002433
    129 C43        -7.2250   -0.0410    2.4340 ca        1 MOL     -0.100026
    130 C44        -5.1050    1.0520    2.9990 ca        1 MOL     -0.100026
    131 C45        -6.9550   -1.0670    3.3760 ca        1 MOL     -0.311735
    132 C46        -4.8620    0.0250    3.9370 ca        1 MOL     -0.311735
    133 C47        -5.6780   -1.1030    3.9930 ca        1 MOL      0.418673
    134 O20        -5.4060   -2.1370    4.8710 oh        1 MOL     -0.470332
    135 H56        -5.3290    0.3650   -0.5500 hn        1 MOL      0.185353
    136 H57        -6.3570    3.0470   -0.5830 h1        1 MOL     -0.025301
    137 H58        -7.7740    1.9450    1.1610 hc        1 MOL     -0.013787
    138 H59        -6.7330    3.0650    1.8570 hc        1 MOL     -0.013787
    139 H60        -8.1610   -0.0080    1.8890 ha        1 MOL      0.117105
    140 H61        -4.5120    1.9590    3.0180 ha        1 MOL      0.117105
    141 H62        -7.6770   -1.8780    3.4210 ha        1 MOL      0.162744
    142 H63        -3.9720   -0.0260    4.5580 ha        1 MOL      0.162744
    143 H64        -5.9800   -2.8940    4.7470 ho        1 MOL      0.300154
    144 N13        -4.4180    4.2340    0.4230 n         1 MOL     -0.528798
    145 C48        -3.3070    5.0840    0.9580 c3        1 MOL     -0.101960
    146 C49        -2.0050    5.1600    0.1520 c         1 MOL      0.231537
    147 O21        -1.1410    6.0240    0.4460 o         1 MOL     -0.451437
    148 C50        -3.0530    4.9980    2.4660 c3        1 MOL      0.033397
    149 C51        -4.3060    5.1960    3.2970 c3        1 MOL     -0.165387
    150 C52        -3.9470    5.3750    4.7460 c         1 MOL      0.568377
    151 O22        -4.1290    4.4310    5.5540 o         1 MOL     -0.679326
    152 O23        -3.3390    6.4040    5.0520 o         1 MOL     -0.679326
    153 H65        -5.3080    4.6200    0.1440 hn        1 MOL      0.312205
    154 H66        -3.6860    6.0990    0.8020 h1        1 MOL      0.136572
    155 H67        -2.2980    5.7100    2.8060 hc        1 MOL      0.095145
    156 H68        -2.6670    4.0090    2.7150 hc        1 MOL      0.095145
    157 H69        -4.9030    4.3020    3.1020 hc        1 MOL      0.015612
    158 H70        -4.9190    6.0150    2.9210 hc        1 MOL      0.015612
    159 N14        -1.7600    4.3330   -0.8910 n         1 MOL     -0.157940
    160 C53        -0.4700    4.3600   -1.6370 c3        1 MOL     -0.028312
    161 C54        -0.6110    5.4020   -2.7480 c         1 MOL      0.485381
    162 O24         0.3170    6.1460   -2.9980 o         1 MOL     -0.556163
    163 C55        -0.1680    2.9870   -2.1940 c3        1 MOL     -0.059804
    164 C56        -0.0280    1.8740   -1.1440 c3        1 MOL     -0.039199
    165 C57         1.0370    2.1970   -0.0640 c         1 MOL      0.582571
    166 O25         0.7310    2.9060    0.9070 o         1 MOL     -0.611883
    167 O26         2.1430    1.6700   -0.2360 o         1 MOL     -0.611883
    168 H71        -2.4490    3.6010   -0.9690 hn        1 MOL      0.205114
    169 H72         0.3330    4.7780   -1.0330 h1        1 MOL      0.144504
    170 H73         0.7030    3.1480   -2.8220 hc        1 MOL      0.009217
    171 H74        -0.9400    2.8070   -2.9310 hc        1 MOL      0.009217
    172 H75         0.1700    0.9070   -1.6180 hc        1 MOL      0.001939
    173 H76        -0.9880    1.7350   -0.6530 hc        1 MOL      0.001939
    174 N15        -1.7670    5.5290   -3.3470 n         1 MOL     -0.197100
    175 C58        -2.1850    6.6120   -4.2840 c3        1 MOL     -0.300004
    176 H77        -3.2710    6.6210   -4.3660 h1        1 MOL      0.118828
    177 H78        -1.8420    7.5740   -3.9040 h1        1 MOL      0.118828
    178 H79        -1.7490    6.4320   -5.2660 h1        1 MOL      0.118828
    179 H80        -2.4100    4.8100   -3.0450 hn        1 MOL      0.185022
    180 Ca1         4.3880    1.8460    0.8220 Ca        1 MOL      1.800651
    181 O27         2.5040    2.3120    2.7620 oh        1 MOL     -0.927850
    182 H81         2.0920    2.0490    3.5960 ho        1 MOL      0.438370
    183 H82         1.7770    2.6210    2.2250 ho        1 MOL      0.438370
    184 O28         5.5120    0.6010    2.8870 oh        1 MOL     -0.927850
    185 H83         6.4210    0.3100    2.9350 ho        1 MOL      0.438370
    186 H84         5.2500    0.7050    3.7950 ho        1 MOL      0.438370
    187 O29         4.1930    4.4640    0.8530 oh        1 MOL     -0.927850
    188 H85         4.8720    5.0240    0.4730 ho        1 MOL      0.438370
    189 H86         3.3950    4.9920    0.7720 ho        1 MOL      0.438370
@<TRIPOS>BOND
     1    1    2 1   
     2    1    4 1   
     3    1    5 1   
     4    1    6 1   
     5    2    3 2   
     6    2    7 1   
     7    7    8 1   
     8    7   15 1   
     9    8    9 1   
    10    8   11 1   
    11    8   16 1   
    12    9   10 2   
    13    9   19 1   
    14   11   12 1   
    15   11   17 1   
    16   11   18 1   
    17   12   13 1   
    18   12   14 1   
    19   19   20 1   
    20   19   27 1   
    21   20   21 1   
    22   20   23 1   
    23   20   28 1   
    24   21   22 2   
    25   21   38 1   
    26   23   24 1   
    27   23   25 1   
    28   23   29 1   
    29   24   26 1   
    30   24   30 1   
    31   24   31 1   
    32   25   32 1   
    33   25   33 1   
    34   25   34 1   
    35   26   35 1   
    36   26   36 1   
    37   26   37 1   
    38   38   39 1   
    39   38   46 1   
    40   39   40 1   
    41   39   42 1   
    42   39   47 1   
    43   40   41 2   
    44   40   50 1   
    45   42   43 1   
    46   42   48 1   
    47   42   49 1   
    48   43   44 1   
    49   43   45 1   
    50   50   51 1   
    51   50   54 1   
    52   51   52 1   
    53   51   55 1   
    54   51   56 1   
    55   52   53 2   
    56   52   57 1   
    57   57   58 1   
    58   57   65 1   
    59   58   59 1   
    60   58   61 1   
    61   58   66 1   
    62   59   60 2   
    63   59   69 1   
    64   61   62 1   
    65   61   67 1   
    66   61   68 1   
    67   62   63 1   
    68   62   64 1   
    69   69   70 1   
    70   69   73 1   
    71   70   71 1   
    72   70   74 1   
    73   70   75 1   
    74   71   72 2   
    75   71   76 1   
    76   76   77 1   
    77   76   85 1   
    78   77   78 1   
    79   77   80 1   
    80   77   86 1   
    81   78   79 2   
    82   78   93 1   
    83   80   81 1   
    84   80   87 1   
    85   80   88 1   
    86   81   82 1   
    87   81   89 1   
    88   81   90 1   
    89   82   83 1   
    90   82   84 2   
    91   83   91 1   
    92   83   92 1   
    93   93   94 1   
    94   93  100 1   
    95   94   95 1   
    96   94   97 1   
    97   94  101 1   
    98   95   96 2   
    99   95  109 1   
   100   97   98 1   
   101   97   99 1   
   102   97  102 1   
   103   98  103 1   
   104   98  104 1   
   105   98  105 1   
   106   99  106 1   
   107   99  107 1   
   108   99  108 1   
   109  109  110 1   
   110  109  117 1   
   111  110  111 1   
   112  110  113 1   
   113  110  118 1   
   114  111  112 2   
   115  111  123 1   
   116  113  114 1   
   117  113  119 1   
   118  113  120 1   
   119  114  115 1   
   120  114  116 2   
   121  115  121 1   
   122  115  122 1   
   123  123  124 1   
   124  123  135 1   
   125  124  125 1   
   126  124  127 1   
   127  124  136 1   
   128  125  126 2   
   129  125  144 1   
   130  127  128 1   
   131  127  137 1   
   132  127  138 1   
   133  128  129 ar  
   134  128  130 ar  
   135  129  131 ar  
   136  129  139 1   
   137  130  132 ar  
   138  130  140 1   
   139  131  133 ar  
   140  131  141 1   
   141  132  133 ar  
   142  132  142 1   
   143  133  134 1   
   144  134  143 1   
   145  144  145 1   
   146  144  153 1   
   147  145  146 1   
   148  145  148 1   
   149  145  154 1   
   150  146  147 2   
   151  146  159 1   
   152  148  149 1   
   153  148  155 1   
   154  148  156 1   
   155  149  150 1   
   156  149  157 1   
   157  149  158 1   
   158  150  151 1   
   159  150  152 1   
   160  159  160 1   
   161  159  168 1   
   162  160  161 1   
   163  160  163 1   
   164  160  169 1   
   165  161  162 2   
   166  161  174 1   
   167  163  164 1   
   168  163  170 1   
   169  163  171 1   
   170  164  165 1   
   171  164  172 1   
   172  164  173 1   
   173  165  166 1   
   174  165  167 1   
   175  174  175 1   
   176  174  179 1   
   177  175  176 1   
   178  175  177 1   
   179  175  178 1   
   180  181  182 1   
   181  181  183 1   
   182  184  185 1   
   183  184  186 1   
   184  187  188 1   
   185  187  189 1   
@<TRIPOS>SUBSTRUCTURE
     1 MOL         1 TEMP              0 ****  ****    0 ROOT
