@<TRIPOS>MOLECULE
MOL
  191   184     1     0     0
SMALL
resp


@<TRIPOS>ATOM
      1 C1          1.8790    1.7250    2.4740 c3        1 MOL     -0.438105
      2 C2          3.0620    1.6530    1.5150 c         1 MOL      0.599481
      3 O1          2.9660    2.0530    0.3200 o         1 MOL     -0.566319
      4 H1          2.1690    1.3100    3.4390 hc        1 MOL      0.124155
      5 H2          1.5760    2.7640    2.6010 hc        1 MOL      0.124155
      6 H3          1.0460    1.1500    2.0670 hc        1 MOL      0.124155
      7 N1          4.2170    1.1390    2.0300 n         1 MOL     -0.366974
      8 C3          5.4460    0.8290    1.3320 c3        1 MOL     -0.016521
      9 C4          5.8030   -0.6740    1.5080 c         1 MOL      0.422716
     10 O2          6.8280   -1.1990    0.9330 o         1 MOL     -0.440331
     11 C5          6.5530    1.7730    1.7430 c3        1 MOL     -0.180590
     12 C6          6.8470    1.8780    3.2510 c         1 MOL      0.715043
     13 O3          6.1970    1.2540    4.0890 o         1 MOL     -0.705937
     14 O4          7.8290    2.6000    3.5760 o         1 MOL     -0.705937
     15 H4          4.1810    0.6330    2.9060 hn        1 MOL      0.227513
     16 H5          5.2270    0.9490    0.2690 h1        1 MOL      0.133454
     17 H6          6.3550    2.8040    1.4310 hc        1 MOL      0.079850
     18 H7          7.4690    1.5200    1.2020 hc        1 MOL      0.079850
     19 N2          5.0060   -1.4400    2.3270 n         1 MOL     -0.410188
     20 C7          5.1960   -2.8910    2.6060 c3        1 MOL     -0.208948
     21 C8          5.3830   -3.7360    1.3630 c         1 MOL      0.628852
     22 O5          6.1710   -4.6500    1.3460 o         1 MOL     -0.526074
     23 C9          6.3690   -2.9770    3.6900 c3        1 MOL     -0.091451
     24 C10         6.2600   -2.2310    4.9690 c3        1 MOL      0.366186
     25 C11         7.4900   -2.3410    5.8840 c3        1 MOL     -0.208868
     26 C12         8.5020   -1.2730    5.5600 c3        1 MOL      0.145108
     27 N3          8.1370    0.1180    5.9400 n4        1 MOL     -0.371915
     28 H8          4.3140   -1.0040    2.9170 hn        1 MOL      0.308983
     29 H9          4.2290   -3.2130    2.9800 h1        1 MOL      0.125446
     30 H10         7.2670   -2.6490    3.1490 hc        1 MOL      0.055545
     31 H11         6.6200   -4.0210    3.8970 hc        1 MOL      0.055545
     32 H12         5.4380   -2.6820    5.5250 hc        1 MOL     -0.082059
     33 H13         6.0500   -1.1630    4.9530 hc        1 MOL     -0.082059
     34 H14         7.9190   -3.3370    5.7780 hc        1 MOL      0.053250
     35 H15         7.1390   -2.1990    6.9080 hc        1 MOL      0.053250
     36 H16         8.8710   -1.3700    4.5360 hx        1 MOL      0.045445
     37 H17         9.3600   -1.4920    6.1900 hx        1 MOL      0.045445
     38 H18         7.4040    0.5060    5.3710 hn        1 MOL      0.309765
     39 H19         7.8320    0.1740    6.9010 hn        1 MOL      0.309765
     40 H20         8.9150    0.7360    5.7500 hn        1 MOL      0.309765
     41 N4          4.8310   -3.1960    0.2890 n         1 MOL     -0.213920
     42 C13         5.0260   -3.6070   -1.0480 c3        1 MOL     -0.302636
     43 C14         4.7550   -2.3110   -1.8890 c         1 MOL      0.767560
     44 O6          3.8810   -2.2200   -2.8060 o         1 MOL     -0.665591
     45 C15         4.1650   -4.7680   -1.4260 c3        1 MOL     -0.234766
     46 C16         2.6610   -4.7270   -1.2470 c         1 MOL      0.698200
     47 O7          2.0560   -5.7990   -1.4330 o         1 MOL     -0.704944
     48 O8          1.9690   -3.6580   -1.0160 o         1 MOL     -0.704944
     49 H21         4.2060   -2.4060    0.4270 hn        1 MOL      0.169548
     50 H22         6.0740   -3.8910   -1.1350 h1        1 MOL      0.147481
     51 H23         4.5130   -5.6820   -0.9330 hc        1 MOL      0.109688
     52 H24         4.3000   -4.8750   -2.5030 hc        1 MOL      0.109688
     53 N5          5.5520   -1.2700   -1.6530 n         1 MOL     -0.430901
     54 C17         5.4560    0.0170   -2.2340 c3        1 MOL     -0.086210
     55 C18         6.6770    0.8950   -2.1360 c         1 MOL      0.567270
     56 O9          7.7630    0.3720   -1.8810 o         1 MOL     -0.518118
     57 H25         6.2630   -1.4360   -0.9560 hn        1 MOL      0.232945
     58 H26         4.6270    0.5710   -1.7980 h1        1 MOL      0.128034
     59 H27         5.2650   -0.1490   -3.2930 h1        1 MOL      0.128034
     60 N6          6.6050    2.2400   -2.3510 n         1 MOL     -0.698395
     61 C19         5.3590    2.9310   -2.7660 c3        1 MOL      0.569671
     62 C20         5.0810    4.0420   -1.7580 c         1 MOL      0.280562
     63 O10         6.0350    4.6660   -1.2470 o         1 MOL     -0.528742
     64 C21         5.6200    3.5080   -4.1570 c3        1 MOL     -0.508798
     65 C22         5.4580    2.3890   -5.1820 c         1 MOL      0.662530
     66 N7          6.5620    1.7500   -5.4420 n         1 MOL     -0.702666
     67 O11         4.4400    1.9510   -5.5950 o         1 MOL     -0.564789
     68 H28         7.4640    2.7480   -2.1600 hn        1 MOL      0.362821
     69 H29         4.5220    2.2260   -2.7450 h1        1 MOL     -0.063567
     70 H30         6.5610    4.0550   -4.2010 hc        1 MOL      0.141229
     71 H31         4.9090    4.3100   -4.3270 hc        1 MOL      0.141229
     72 H32         7.4290    2.1880   -5.1710 hn        1 MOL      0.344586
     73 H33         6.4980    1.1040   -6.2130 hn        1 MOL      0.344586
     74 N8          3.8760    4.5900   -1.6240 n         1 MOL     -0.147957
     75 C23         2.6440    4.2120   -2.3260 c3        1 MOL     -0.373713
     76 C24         1.3600    4.9100   -1.7930 c         1 MOL      0.755393
     77 O12         1.4630    6.1320   -1.6210 o         1 MOL     -0.578547
     78 H34         3.8230    5.3270   -0.9200 hn        1 MOL      0.254865
     79 H35         2.6010    3.1260   -2.1880 h1        1 MOL      0.118294
     80 H36         2.8870    4.5650   -3.3250 h1        1 MOL      0.118294
     81 N9          0.3530    4.2020   -1.4670 n         1 MOL     -0.547618
     82 C25        -0.8600    4.7610   -0.7840 c3        1 MOL      0.262631
     83 C26        -1.5900    3.7430    0.1280 c         1 MOL      0.604719
     84 O13        -1.3020    2.5460    0.1080 o         1 MOL     -0.532448
     85 C27        -1.6760    5.4420   -1.8340 c3        1 MOL     -0.277645
     86 C28        -2.7180    6.4590   -1.3320 ca        1 MOL      0.192786
     87 C29        -4.0370    6.3320   -1.6800 ca        1 MOL     -0.213708
     88 C30        -2.2530    7.4520   -0.4380 ca        1 MOL     -0.213708
     89 C31        -4.9440    7.2270   -1.1820 ca        1 MOL     -0.198477
     90 C32        -3.2150    8.1810    0.2090 ca        1 MOL     -0.198477
     91 C33        -4.5840    8.1840   -0.2230 ca        1 MOL      0.245303
     92 O14        -5.5250    8.9000    0.5140 oh        1 MOL     -0.468352
     93 H37         0.4630    3.2020   -1.4460 hn        1 MOL      0.269893
     94 H38        -0.5730    5.4160    0.0320 h1        1 MOL      0.008543
     95 H39        -2.2240    4.7590   -2.4710 hc        1 MOL      0.092092
     96 H40        -1.0680    6.0920   -2.4660 hc        1 MOL      0.092092
     97 H41        -4.3630    5.5220   -2.3200 ha        1 MOL      0.153903
     98 H42        -1.1900    7.6010   -0.2550 ha        1 MOL      0.153903
     99 H43        -5.9360    7.2910   -1.6060 ha        1 MOL      0.139300
    100 H44        -2.8570    8.9430    0.9000 ha        1 MOL      0.139300
    101 H45        -5.0640    9.3940    1.1920 ho        1 MOL      0.359292
    102 N10        -2.6040    4.1410    0.8720 n         1 MOL     -0.506558
    103 C34        -3.6100    3.3680    1.5560 c3        1 MOL      0.011927
    104 C35        -4.6420    2.8130    0.5650 c         1 MOL      0.494424
    105 O15        -4.5970    3.1230   -0.6080 o         1 MOL     -0.485714
    106 C36        -4.2130    4.1640    2.7380 c3        1 MOL      0.119881
    107 C37        -5.1570    5.2140    2.1680 c3        1 MOL      0.131222
    108 C38        -4.7750    3.3870    3.9140 c3        1 MOL     -0.182510
    109 C39        -5.6040    6.2230    3.2900 c3        1 MOL     -0.195759
    110 H46        -2.8510    5.1130    0.7150 hn        1 MOL      0.201386
    111 H47        -3.0580    2.5020    1.9340 h1        1 MOL      0.103564
    112 H48        -3.3710    4.7760    3.0700 hc        1 MOL      0.012844
    113 H49        -6.1070    4.8360    1.7840 hc        1 MOL     -0.000468
    114 H50        -4.6510    5.8350    1.4240 hc        1 MOL     -0.000468
    115 H51        -5.0250    3.9820    4.7910 hc        1 MOL      0.049847
    116 H52        -5.6960    2.9270    3.5710 hc        1 MOL      0.049847
    117 H53        -4.0590    2.6070    4.1820 hc        1 MOL      0.049847
    118 H54        -6.4280    5.7860    3.8480 hc        1 MOL      0.037972
    119 H55        -4.7750    6.5340    3.9240 hc        1 MOL      0.037972
    120 H56        -5.9690    7.1000    2.7490 hc        1 MOL      0.037972
    121 N11        -5.5820    1.9190    0.9740 n         1 MOL     -0.442045
    122 C40        -6.5460    1.2880    0.0550 c3        1 MOL      0.052935
    123 C41        -6.0020    0.0460   -0.7670 c         1 MOL      0.619341
    124 O16        -5.0570   -0.5990   -0.3410 o         1 MOL     -0.447649
    125 C42        -7.8170    1.0320    0.8420 c3        1 MOL      0.023422
    126 O17        -7.5800    0.2200    2.0060 oh        1 MOL     -0.495041
    127 H57        -5.6250    1.7260    1.9590 hn        1 MOL      0.255936
    128 H58        -6.9210    2.0440   -0.6380 h1        1 MOL      0.047178
    129 H59        -8.5180    0.4830    0.2090 h1        1 MOL      0.050583
    130 H60        -8.3220    1.9320    1.1740 h1        1 MOL      0.050583
    131 H61        -8.4500   -0.0010    2.3500 ho        1 MOL      0.387044
    132 N12        -6.6890   -0.3170   -1.8690 n         1 MOL     -0.626788
    133 C43        -6.3150   -1.5190   -2.6070 c3        1 MOL      0.196542
    134 C44        -6.5940   -2.8400   -1.8860 c         1 MOL      0.512676
    135 O18        -5.7620   -3.7730   -2.0280 o         1 MOL     -0.499856
    136 C45        -4.9060   -1.4960   -3.2420 c3        1 MOL     -0.362838
    137 H62        -7.5500    0.1880   -2.0470 hn        1 MOL      0.322013
    138 H63        -7.0480   -1.4320   -3.4050 h1        1 MOL      0.059128
    139 H64        -4.6740   -0.5610   -3.7470 hc        1 MOL      0.122282
    140 H65        -4.1290   -1.5930   -2.4900 hc        1 MOL      0.122282
    141 H66        -4.9800   -2.2650   -4.0130 hc        1 MOL      0.122282
    142 N13        -7.6670   -2.8720   -1.0610 n         1 MOL     -0.603633
    143 C46        -7.9970   -3.9500   -0.1390 c3        1 MOL      0.272747
    144 C47        -6.8810   -4.2510    0.8990 c         1 MOL      0.340085
    145 O19        -6.7360   -5.3510    1.3840 o         1 MOL     -0.471391
    146 C48        -8.6220   -5.1750   -0.8150 c3        1 MOL     -0.269447
    147 H67        -8.3710   -2.1480   -1.1020 hn        1 MOL      0.324616
    148 H68        -8.8060   -3.4970    0.4420 h1        1 MOL      0.027415
    149 H69        -8.0080   -5.6330   -1.5840 hc        1 MOL      0.084866
    150 H70        -8.9930   -5.8750   -0.0760 hc        1 MOL      0.084866
    151 H71        -9.5330   -4.9380   -1.3650 hc        1 MOL      0.084866
    152 N14        -5.9910   -3.2970    1.1980 n         1 MOL     -0.317934
    153 C49        -4.7480   -3.4310    2.0030 c3        1 MOL      0.056820
    154 C50        -4.8500   -3.0750    3.4740 c         1 MOL      0.380987
    155 O20        -4.1260   -3.6170    4.3200 o         1 MOL     -0.514893
    156 C51        -3.5910   -2.6320    1.3900 c3        1 MOL      0.514148
    157 C52        -2.1540   -3.0970    1.6980 c3        1 MOL     -0.541482
    158 C53        -1.7820   -4.4830    1.0290 c         1 MOL      0.779273
    159 O21        -2.4470   -5.5010    1.2720 o         1 MOL     -0.708418
    160 O22        -0.8760   -4.5670    0.1880 o         1 MOL     -0.708418
    161 H72        -6.0520   -2.4750    0.6200 hn        1 MOL      0.168976
    162 H73        -4.4480   -4.4790    1.9130 h1        1 MOL      0.116539
    163 H74        -3.6870   -1.6400    1.8280 hc        1 MOL     -0.125213
    164 H75        -3.7460   -2.5740    0.3100 hc        1 MOL     -0.125213
    165 H76        -2.0380   -3.1160    2.7830 hc        1 MOL      0.094505
    166 H77        -1.5580   -2.2630    1.3440 hc        1 MOL      0.094505
    167 N15        -5.8300   -2.2350    3.7750 n         1 MOL     -0.100535
    168 C54        -6.2930   -1.9950    5.1460 c3        1 MOL     -0.284421
    169 H78        -6.6850   -2.9230    5.5650 h1        1 MOL      0.110249
    170 H79        -5.4600   -1.6450    5.7560 h1        1 MOL      0.110249
    171 H80        -7.0800   -1.2410    5.1380 h1        1 MOL      0.110249
    172 H81        -6.2680   -1.7930    2.9820 hn        1 MOL      0.069631
    173 Ca1        -0.4380   -4.2160   -2.3160 Ca        1 MOL      1.776392
    174 O23         1.1160   -2.4940   -3.6050 oh        1 MOL     -0.838773
    175 H82         1.9890   -2.2390   -3.3100 ho        1 MOL      0.411445
    176 H83         0.9450   -1.9410   -4.3720 ho        1 MOL      0.411445
    177 O24        -3.2070   -4.3300   -1.8350 oh        1 MOL     -0.838773
    178 H84        -3.2110   -5.1870   -1.3930 ho        1 MOL      0.411445
    179 H85        -4.1260   -4.0640   -1.8590 ho        1 MOL      0.411445
    180 O25         0.5480   -5.4560   -4.8140 oh        1 MOL     -0.838773
    181 H86         1.4610   -5.3930   -5.0880 ho        1 MOL      0.411445
    182 H87         0.0430   -5.2740   -5.6060 ho        1 MOL      0.411445
    183 O26        -1.0810   -6.8040   -2.4140 oh        1 MOL     -0.838773
    184 H88        -1.2090   -7.3780   -1.6640 ho        1 MOL      0.411445
    185 H89        -1.1160   -7.3900   -3.1740 ho        1 MOL      0.411445
    186 O27        -1.6950   -3.3590   -4.5210 oh        1 MOL     -0.838773
    187 H90        -1.5990   -3.9070   -5.2990 ho        1 MOL      0.411445
    188 H91        -1.9910   -2.5090   -4.8480 ho        1 MOL      0.411445
    189 O28        -0.6260   -1.8600   -1.2830 oh        1 MOL     -0.838773
    190 H92         0.2110   -1.4370   -1.0770 ho        1 MOL      0.411445
    191 H93        -1.2830   -1.1940   -1.0720 ho        1 MOL      0.411445
@<TRIPOS>BOND
     1    1    2 1   
     2    1    4 1   
     3    1    5 1   
     4    1    6 1   
     5    2    3 2   
     6    2    7 1   
     7    7    8 1   
     8    7   15 1   
     9    8    9 1   
    10    8   11 1   
    11    8   16 1   
    12    9   10 2   
    13    9   19 1   
    14   11   12 1   
    15   11   17 1   
    16   11   18 1   
    17   12   13 1   
    18   12   14 1   
    19   19   20 1   
    20   19   28 1   
    21   20   21 1   
    22   20   23 1   
    23   20   29 1   
    24   21   22 2   
    25   21   41 1   
    26   23   24 1   
    27   23   30 1   
    28   23   31 1   
    29   24   25 1   
    30   24   32 1   
    31   24   33 1   
    32   25   26 1   
    33   25   34 1   
    34   25   35 1   
    35   26   27 1   
    36   26   36 1   
    37   26   37 1   
    38   27   38 1   
    39   27   39 1   
    40   27   40 1   
    41   41   42 1   
    42   41   49 1   
    43   42   43 1   
    44   42   45 1   
    45   42   50 1   
    46   43   44 2   
    47   43   53 1   
    48   45   46 1   
    49   45   51 1   
    50   45   52 1   
    51   46   47 1   
    52   46   48 1   
    53   53   54 1   
    54   53   57 1   
    55   54   55 1   
    56   54   58 1   
    57   54   59 1   
    58   55   56 2   
    59   55   60 1   
    60   60   61 1   
    61   60   68 1   
    62   61   62 1   
    63   61   64 1   
    64   61   69 1   
    65   62   63 2   
    66   62   74 1   
    67   64   65 1   
    68   64   70 1   
    69   64   71 1   
    70   65   66 1   
    71   65   67 2   
    72   66   72 1   
    73   66   73 1   
    74   74   75 1   
    75   74   78 1   
    76   75   76 1   
    77   75   79 1   
    78   75   80 1   
    79   76   77 2   
    80   76   81 1   
    81   81   82 1   
    82   81   93 1   
    83   82   83 1   
    84   82   85 1   
    85   82   94 1   
    86   83   84 2   
    87   83  102 1   
    88   85   86 1   
    89   85   95 1   
    90   85   96 1   
    91   86   87 ar  
    92   86   88 ar  
    93   87   89 ar  
    94   87   97 1   
    95   88   90 ar  
    96   88   98 1   
    97   89   91 ar  
    98   89   99 1   
    99   90   91 ar  
   100   90  100 1   
   101   91   92 1   
   102   92  101 1   
   103  102  103 1   
   104  102  110 1   
   105  103  104 1   
   106  103  106 1   
   107  103  111 1   
   108  104  105 2   
   109  104  121 1   
   110  106  107 1   
   111  106  108 1   
   112  106  112 1   
   113  107  109 1   
   114  107  113 1   
   115  107  114 1   
   116  108  115 1   
   117  108  116 1   
   118  108  117 1   
   119  109  118 1   
   120  109  119 1   
   121  109  120 1   
   122  121  122 1   
   123  121  127 1   
   124  122  123 1   
   125  122  125 1   
   126  122  128 1   
   127  123  124 2   
   128  123  132 1   
   129  125  126 1   
   130  125  129 1   
   131  125  130 1   
   132  126  131 1   
   133  132  133 1   
   134  132  137 1   
   135  133  134 1   
   136  133  136 1   
   137  133  138 1   
   138  134  135 2   
   139  134  142 1   
   140  136  139 1   
   141  136  140 1   
   142  136  141 1   
   143  142  143 1   
   144  142  147 1   
   145  143  144 1   
   146  143  146 1   
   147  143  148 1   
   148  144  145 2   
   149  144  152 1   
   150  146  149 1   
   151  146  150 1   
   152  146  151 1   
   153  152  153 1   
   154  152  161 1   
   155  153  154 1   
   156  153  156 1   
   157  153  162 1   
   158  154  155 2   
   159  154  167 1   
   160  156  157 1   
   161  156  163 1   
   162  156  164 1   
   163  157  158 1   
   164  157  165 1   
   165  157  166 1   
   166  158  159 1   
   167  158  160 1   
   168  167  168 1   
   169  167  172 1   
   170  168  169 1   
   171  168  170 1   
   172  168  171 1   
   173  174  175 1   
   174  174  176 1   
   175  177  178 1   
   176  177  179 1   
   177  180  181 1   
   178  180  182 1   
   179  183  184 1   
   180  183  185 1   
   181  186  187 1   
   182  186  188 1   
   183  189  190 1   
   184  189  191 1   
@<TRIPOS>SUBSTRUCTURE
     1 MOL         1 TEMP              0 ****  ****    0 ROOT
