@<TRIPOS>MOLECULE
MOL
  179   176     1     0     0
SMALL
resp


@<TRIPOS>ATOM
      1 C1          2.6620    2.2190    6.5560 c3        1 MOL     -0.404334
      2 C2          2.4510    2.2930    5.0610 c         1 MOL      0.695515
      3 O1          3.4080    2.2020    4.2480 o         1 MOL     -0.598933
      4 H1          1.8010    2.6520    7.0660 hc        1 MOL      0.113765
      5 H2          2.7740    1.1760    6.8560 hc        1 MOL      0.113765
      6 H3          3.5610    2.7740    6.8260 hc        1 MOL      0.113765
      7 N1          1.2120    2.5120    4.6260 n         1 MOL     -0.483765
      8 C3          0.8390    2.3920    3.2230 c3        1 MOL     -0.010677
      9 C4          1.0900    3.6290    2.3750 c         1 MOL      0.519761
     10 O2          0.2410    4.5610    2.3580 o         1 MOL     -0.474524
     11 C5         -0.6190    1.9190    3.1020 c3        1 MOL     -0.124045
     12 C6         -1.0530    1.7250    1.6770 c         1 MOL      0.425875
     13 O3         -2.3060    1.7050    1.4970 o         1 MOL     -0.641875
     14 O4         -0.2260    1.4380    0.7860 o         1 MOL     -0.641875
     15 H4          0.4810    2.6440    5.3040 hn        1 MOL      0.300908
     16 H5          1.4550    1.5580    2.8840 h1        1 MOL      0.019306
     17 H6         -1.3580    2.5680    3.5710 hc        1 MOL      0.079562
     18 H7         -0.7230    0.9620    3.6130 hc        1 MOL      0.079562
     19 N2          2.2520    3.7440    1.5980 n         1 MOL     -0.327743
     20 C7          2.6840    4.9560    0.8980 c3        1 MOL     -0.133870
     21 C8          1.6740    5.4670   -0.1260 c         1 MOL      0.442068
     22 O5          1.6040    6.6630   -0.2690 o         1 MOL     -0.510887
     23 C9          4.0800    4.6340    0.3390 c3        1 MOL     -0.174058
     24 C10         4.8220    5.7760   -0.3490 c3        1 MOL     -0.060926
     25 C11         6.2520    5.2760   -0.6930 c3        1 MOL     -0.142977
     26 C12         6.1850    4.4220   -1.9530 c3        1 MOL      0.240945
     27 N3          7.5360    3.8520   -2.3160 n4        1 MOL     -0.603071
     28 H8          2.8880    2.9620    1.6910 hn        1 MOL      0.254383
     29 H9          2.7900    5.7320    1.6510 h1        1 MOL      0.150764
     30 H10         4.0260    3.8450   -0.4080 hc        1 MOL      0.099953
     31 H11         4.6960    4.3540    1.1950 hc        1 MOL      0.099953
     32 H12         5.0110    6.6080    0.3300 hc        1 MOL      0.079850
     33 H13         4.2580    6.1880   -1.1900 hc        1 MOL      0.079850
     34 H14         6.6580    4.6610    0.1040 hc        1 MOL      0.067565
     35 H15         6.7870    6.1860   -0.9480 hc        1 MOL      0.067565
     36 H16         5.8320    5.0630   -2.7600 hx        1 MOL      0.029542
     37 H17         5.4930    3.6090   -1.7450 hx        1 MOL      0.029542
     38 H18         7.4210    3.3450   -3.1840 hn        1 MOL      0.387525
     39 H19         8.2380    4.5250   -2.5860 hn        1 MOL      0.387525
     40 H20         7.7920    3.2140   -1.5790 hn        1 MOL      0.387525
     41 N4          0.9520    4.6030   -0.8450 n         1 MOL     -0.179127
     42 C13         0.0060    4.8810   -1.8510 c3        1 MOL     -0.083503
     43 C14        -1.3740    5.1780   -1.1850 c         1 MOL      0.353329
     44 O6         -2.1670    5.9620   -1.7830 o         1 MOL     -0.514047
     45 C15        -0.1480    3.7710   -2.9000 c3        1 MOL     -0.234463
     46 C16        -0.6970    2.4140   -2.3900 c         1 MOL      0.803048
     47 O7         -1.7710    2.4520   -1.7840 o         1 MOL     -0.806669
     48 O8         -0.0830    1.3520   -2.5710 o         1 MOL     -0.806669
     49 H21         1.1670    3.6310   -0.6920 hn        1 MOL      0.224986
     50 H22         0.2600    5.8260   -2.3160 h1        1 MOL      0.108038
     51 H23         0.8170    3.5320   -3.3720 hc        1 MOL      0.070296
     52 H24        -0.7610    4.1160   -3.7370 hc        1 MOL      0.070296
     53 N5         -1.7190    4.6470   -0.0140 n         1 MOL      0.104649
     54 C17        -3.0030    4.8540    0.7600 c3        1 MOL     -0.442659
     55 C18        -4.2990    4.3200    0.2240 c         1 MOL      0.677812
     56 O9         -5.3970    4.7160    0.6140 o         1 MOL     -0.591279
     57 H25        -1.1280    3.8960    0.3020 hn        1 MOL      0.005062
     58 H26        -3.1410    5.9330    0.7690 h1        1 MOL      0.161751
     59 H27        -2.9410    4.4930    1.7880 h1        1 MOL      0.161751
     60 N6         -4.2000    3.4550   -0.7200 n         1 MOL     -0.273756
     61 C19        -5.3470    2.9030   -1.4970 c3        1 MOL     -0.059808
     62 C20        -5.2980    1.3460   -1.6180 c         1 MOL      0.647546
     63 O10        -4.2340    0.7690   -1.4350 o         1 MOL     -0.615136
     64 C21        -5.3630    3.3780   -2.9900 c3        1 MOL     -0.284473
     65 C22        -5.4530    4.8820   -3.0180 c         1 MOL      0.618501
     66 N7         -4.6360    5.5510   -3.8320 n         1 MOL     -0.784482
     67 O11        -6.2930    5.5170   -2.3300 o         1 MOL     -0.506619
     68 H28        -3.2570    3.3670   -1.0780 hn        1 MOL      0.387882
     69 H29        -6.2870    3.1900   -1.0240 h1        1 MOL      0.074924
     70 H30        -6.2210    3.0350   -3.5660 hc        1 MOL      0.076155
     71 H31        -4.5100    3.0420   -3.5680 hc        1 MOL      0.076155
     72 H32        -4.0760    5.0650   -4.5250 hn        1 MOL      0.362443
     73 H33        -4.7050    6.5450   -3.9540 hn        1 MOL      0.362443
     74 N8         -6.4330    0.7350   -1.9350 n         1 MOL     -0.417928
     75 C23        -6.4950   -0.7240   -2.0180 c3        1 MOL     -0.164155
     76 C24        -6.0580   -1.4830   -0.7550 c         1 MOL      0.642563
     77 O12        -6.2610   -1.0030    0.3710 o         1 MOL     -0.509072
     78 H34        -7.3290    1.1930   -2.0360 hn        1 MOL      0.333358
     79 H35        -5.8680   -1.0410   -2.8520 h1        1 MOL      0.088199
     80 H36        -7.5260   -0.8770   -2.3480 h1        1 MOL      0.088199
     81 N9         -5.4200   -2.6400   -0.8790 n         1 MOL     -0.716354
     82 C25        -4.8500   -3.3680    0.3230 c3        1 MOL      0.368394
     83 C26        -3.7300   -2.6290    0.9480 c         1 MOL      0.340557
     84 O13        -3.2960   -1.5920    0.4480 o         1 MOL     -0.408540
     85 C27        -4.3820   -4.7250   -0.2240 c3        1 MOL     -0.260788
     86 C28        -5.5160   -5.5350   -0.8790 ca        1 MOL      0.194571
     87 C29        -5.5400   -5.8610   -2.2430 ca        1 MOL     -0.272898
     88 C30        -6.5500   -5.9390    0.0000 ca        1 MOL     -0.272898
     89 C31        -6.6900   -6.4340   -2.8610 ca        1 MOL     -0.159898
     90 C32        -7.7040   -6.5700   -0.6150 ca        1 MOL     -0.159898
     91 C33        -7.8130   -6.5900   -1.9960 ca        1 MOL      0.249694
     92 O14        -8.9210   -6.9780   -2.4980 oh        1 MOL     -0.439153
     93 H37        -5.1110   -2.9400   -1.7930 hn        1 MOL      0.367869
     94 H38        -5.5470   -3.6300    1.1170 h1        1 MOL      0.023521
     95 H39        -4.0470   -5.3560    0.6080 hc        1 MOL      0.051562
     96 H40        -3.6000   -4.3980   -0.9120 hc        1 MOL      0.051562
     97 H41        -4.6880   -5.4740   -2.8030 ha        1 MOL      0.157951
     98 H42        -6.4870   -5.7670    1.0610 ha        1 MOL      0.157951
     99 H43        -6.8550   -6.5610   -3.9190 ha        1 MOL      0.136554
    100 H44        -8.4770   -6.9500    0.0380 ha        1 MOL      0.136554
    101 H45        -9.6970   -6.9430   -1.9230 ho        1 MOL      0.370134
    102 N10        -3.2470   -3.1210    2.0930 n         1 MOL     -0.613330
    103 C34        -2.2640   -2.5140    2.9980 c3        1 MOL      0.183343
    104 C35        -0.8960   -2.1250    2.4690 c         1 MOL      0.487717
    105 O15        -0.7770   -1.5150    1.4070 o         1 MOL     -0.428648
    106 C36        -2.9190   -1.3810    3.9020 c3        1 MOL      0.372393
    107 C37        -2.1180   -0.9920    5.1480 c3        1 MOL     -0.548978
    108 C38        -4.3860   -1.5570    4.1600 c3        1 MOL     -0.199330
    109 C39        -2.1570   -1.9550    6.2720 c3        1 MOL     -0.100079
    110 H46        -3.7030   -3.9610    2.4470 hn        1 MOL      0.342184
    111 H47        -2.0930   -3.3080    3.7130 h1        1 MOL     -0.004534
    112 H48        -2.8340   -0.4680    3.3100 hc        1 MOL     -0.019299
    113 H49        -2.6720   -0.1200    5.4970 hc        1 MOL      0.179370
    114 H50        -1.0890   -0.7480    4.8780 hc        1 MOL      0.179370
    115 H51        -4.8200   -0.7290    4.7270 hc        1 MOL      0.058730
    116 H52        -4.9080   -1.4270    3.2210 hc        1 MOL      0.058730
    117 H53        -4.6670   -2.5340    4.5600 hc        1 MOL      0.058730
    118 H54        -3.1800   -2.2750    6.4570 hc        1 MOL      0.039904
    119 H55        -1.5310   -2.7920    5.9670 hc        1 MOL      0.039904
    120 H56        -1.8650   -1.5140    7.2260 hc        1 MOL      0.039904
    121 N11         0.2150   -2.3850    3.2660 n         1 MOL     -0.692932
    122 C40         1.4630   -1.5820    3.2330 c3        1 MOL     -0.037400
    123 C41         2.4050   -1.8750    1.9840 c         1 MOL      0.394764
    124 O16         3.4510   -1.1850    1.9260 o         1 MOL     -0.530132
    125 C42         2.3170   -2.0270    4.3400 c3        1 MOL      0.086658
    126 O17         1.6000   -1.9270    5.5910 oh        1 MOL     -0.617516
    127 H57         0.0790   -2.8610    4.1390 hn        1 MOL      0.365781
    128 H58         1.2780   -0.5250    3.4380 h1        1 MOL      0.271498
    129 H59         3.2360   -1.4420    4.3870 h1        1 MOL      0.100540
    130 H60         2.6630   -3.0380    4.1400 h1        1 MOL      0.100540
    131 H61         1.1840   -2.7730    5.7940 ho        1 MOL      0.387102
    132 N12         1.9550   -2.5930    1.0030 n         1 MOL     -0.286788
    133 C43         2.6430   -2.5630   -0.3200 c3        1 MOL      0.026218
    134 C44         2.2790   -1.2970   -1.1030 c         1 MOL      0.918880
    135 O18         1.1510   -0.9550   -1.0150 o         1 MOL     -0.704276
    136 C45         2.4420   -3.8620   -1.1380 c3        1 MOL     -0.425395
    137 H62         1.0200   -2.9610    1.1020 hn        1 MOL      0.257901
    138 H63         3.7120   -2.5150   -0.1590 h1        1 MOL      0.096525
    139 H64         3.0390   -3.9050   -2.0470 hc        1 MOL      0.117118
    140 H65         2.6330   -4.6910   -0.4690 hc        1 MOL      0.117118
    141 H66         1.4060   -3.8010   -1.4740 hc        1 MOL      0.117118
    142 N13         3.2210   -0.6750   -1.8150 n         1 MOL     -0.916940
    143 C46         4.7000   -0.8200   -1.7060 c3        1 MOL      0.360229
    144 C47         5.2190   -2.1250   -2.3650 c         1 MOL      0.746674
    145 O19         4.6900   -2.4510   -3.4380 o         1 MOL     -0.584333
    146 C48         5.2920    0.4300   -2.2480 c3        1 MOL     -0.274185
    147 H67         2.8350    0.0920   -2.3480 hn        1 MOL      0.454454
    148 H68         4.9360   -0.9370   -0.6450 h1        1 MOL      0.034423
    149 H69         4.8560    0.7550   -3.1950 hc        1 MOL      0.051620
    150 H70         4.9540    1.2030   -1.5610 hc        1 MOL      0.051620
    151 H71         6.3740    0.3020   -2.2130 hc        1 MOL      0.051620
    152 N14         6.2010   -2.9330   -1.9080 n         1 MOL     -0.624056
    153 C49         6.9900   -2.7890   -0.6800 c3        1 MOL     -0.029398
    154 C50         7.0730   -4.1450    0.0410 c         1 MOL      0.624612
    155 O20         6.8950   -4.1030    1.1920 o         1 MOL     -0.580596
    156 C51         8.4020   -2.2200   -1.0350 c3        1 MOL     -0.009588
    157 C52         9.3730   -3.0870   -1.8890 c3        1 MOL     -0.196069
    158 C53         8.7450   -3.4540   -3.2240 c         1 MOL      0.858834
    159 O21         8.8820   -2.6840   -4.2020 o         1 MOL     -0.744152
    160 O22         8.3560   -4.5980   -3.2600 o         1 MOL     -0.744152
    161 H72         6.2840   -3.8730   -2.2710 hn        1 MOL      0.265938
    162 H73         6.4490   -2.1910    0.0420 h1        1 MOL      0.037954
    163 H74         8.9510   -2.0060   -0.1200 hc        1 MOL     -0.002228
    164 H75         8.2150   -1.2770   -1.5520 hc        1 MOL     -0.002228
    165 H76         9.7300   -4.0070   -1.4110 hc        1 MOL      0.019970
    166 H77        10.2740   -2.5750   -2.2170 hc        1 MOL      0.019970
    167 N15         7.2630   -5.2630   -0.5800 n         1 MOL     -0.314474
    168 C54         7.2230   -6.5160    0.2100 c3        1 MOL     -0.050186
    169 H78         8.1940   -7.0080    0.1590 h1        1 MOL      0.049346
    170 H79         6.9880   -6.2840    1.2490 h1        1 MOL      0.049346
    171 H80         6.4590   -7.1790   -0.1970 h1        1 MOL      0.049346
    172 H81         7.6450   -5.2740   -1.5090 hn        1 MOL      0.281619
    173 Ca1        -1.4880   -0.0570   -0.8200 Ca        1 MOL      1.748961
    174 O23        -1.4240   -2.6180   -1.2570 oh        1 MOL     -0.778663
    175 H82        -1.1600   -2.9890   -2.0960 ho        1 MOL      0.402300
    176 H83        -1.0290   -3.1910   -0.6040 ho        1 MOL      0.402300
    177 O24        -2.0370   -0.4350   -3.4110 oh        1 MOL     -0.778663
    178 H84        -2.3120   -0.7900   -4.2630 ho        1 MOL      0.402300
    179 H85        -1.8890    0.4920   -3.5770 ho        1 MOL      0.402300
@<TRIPOS>BOND
     1    1    2 1   
     2    1    4 1   
     3    1    5 1   
     4    1    6 1   
     5    2    3 2   
     6    2    7 1   
     7    7    8 1   
     8    7   15 1   
     9    8    9 1   
    10    8   11 1   
    11    8   16 1   
    12    9   10 2   
    13    9   19 1   
    14   11   12 1   
    15   11   17 1   
    16   11   18 1   
    17   12   13 1   
    18   12   14 1   
    19   19   20 1   
    20   19   28 1   
    21   20   21 1   
    22   20   23 1   
    23   20   29 1   
    24   21   22 2   
    25   21   41 1   
    26   23   24 1   
    27   23   30 1   
    28   23   31 1   
    29   24   25 1   
    30   24   32 1   
    31   24   33 1   
    32   25   26 1   
    33   25   34 1   
    34   25   35 1   
    35   26   27 1   
    36   26   36 1   
    37   26   37 1   
    38   27   38 1   
    39   27   39 1   
    40   27   40 1   
    41   41   42 1   
    42   41   49 1   
    43   42   43 1   
    44   42   45 1   
    45   42   50 1   
    46   43   44 2   
    47   43   53 1   
    48   45   46 1   
    49   45   51 1   
    50   45   52 1   
    51   46   47 1   
    52   46   48 1   
    53   53   54 1   
    54   53   57 1   
    55   54   55 1   
    56   54   58 1   
    57   54   59 1   
    58   55   56 2   
    59   55   60 1   
    60   60   61 1   
    61   60   68 1   
    62   61   62 1   
    63   61   64 1   
    64   61   69 1   
    65   62   63 2   
    66   62   74 1   
    67   64   65 1   
    68   64   70 1   
    69   64   71 1   
    70   65   66 1   
    71   65   67 2   
    72   66   72 1   
    73   66   73 1   
    74   74   75 1   
    75   74   78 1   
    76   75   76 1   
    77   75   79 1   
    78   75   80 1   
    79   76   77 2   
    80   76   81 1   
    81   81   82 1   
    82   81   93 1   
    83   82   83 1   
    84   82   85 1   
    85   82   94 1   
    86   83   84 2   
    87   83  102 1   
    88   85   86 1   
    89   85   95 1   
    90   85   96 1   
    91   86   87 ar  
    92   86   88 ar  
    93   87   89 ar  
    94   87   97 1   
    95   88   90 ar  
    96   88   98 1   
    97   89   91 ar  
    98   89   99 1   
    99   90   91 ar  
   100   90  100 1   
   101   91   92 1   
   102   92  101 1   
   103  102  103 1   
   104  102  110 1   
   105  103  104 1   
   106  103  106 1   
   107  103  111 1   
   108  104  105 2   
   109  104  121 1   
   110  106  107 1   
   111  106  108 1   
   112  106  112 1   
   113  107  109 1   
   114  107  113 1   
   115  107  114 1   
   116  108  115 1   
   117  108  116 1   
   118  108  117 1   
   119  109  118 1   
   120  109  119 1   
   121  109  120 1   
   122  121  122 1   
   123  121  127 1   
   124  122  123 1   
   125  122  125 1   
   126  122  128 1   
   127  123  124 2   
   128  123  132 1   
   129  125  126 1   
   130  125  129 1   
   131  125  130 1   
   132  126  131 1   
   133  132  133 1   
   134  132  137 1   
   135  133  134 1   
   136  133  136 1   
   137  133  138 1   
   138  134  135 2   
   139  134  142 1   
   140  136  139 1   
   141  136  140 1   
   142  136  141 1   
   143  142  143 1   
   144  142  147 1   
   145  143  144 1   
   146  143  146 1   
   147  143  148 1   
   148  144  145 2   
   149  144  152 1   
   150  146  149 1   
   151  146  150 1   
   152  146  151 1   
   153  152  153 1   
   154  152  161 1   
   155  153  154 1   
   156  153  156 1   
   157  153  162 1   
   158  154  155 2   
   159  154  167 1   
   160  156  157 1   
   161  156  163 1   
   162  156  164 1   
   163  157  158 1   
   164  157  165 1   
   165  157  166 1   
   166  158  159 1   
   167  158  160 1   
   168  167  168 1   
   169  167  172 1   
   170  168  169 1   
   171  168  170 1   
   172  168  171 1   
   173  174  175 1   
   174  174  176 1   
   175  177  178 1   
   176  177  179 1   
@<TRIPOS>SUBSTRUCTURE
     1 MOL         1 TEMP              0 ****  ****    0 ROOT
