@<TRIPOS>MOLECULE
MOL
  189   185     1     0     0
SMALL
resp


@<TRIPOS>ATOM
      1 C1          4.7160    4.5620   -3.6230 c3        1 MOL     -0.326777
      2 C2          5.4150    3.8580   -2.3760 c         1 MOL      0.760899
      3 O1          4.6180    3.6010   -1.4480 o         1 MOL     -0.608743
      4 H1          5.1100    5.5720   -3.7360 hc        1 MOL      0.078313
      5 H2          4.9220    3.9890   -4.5270 hc        1 MOL      0.078313
      6 H3          3.6400    4.6080   -3.4590 hc        1 MOL      0.078313
      7 N1          6.6850    3.4580   -2.4410 n         1 MOL     -0.685270
      8 C3          7.3000    2.3720   -1.6460 c3        1 MOL      0.532180
      9 C4          6.3960    1.1550   -1.4840 c         1 MOL      0.286950
     10 O2          5.8290    0.9440   -0.4370 o         1 MOL     -0.572267
     11 C5          7.9660    2.8330   -0.3090 c3        1 MOL     -0.310912
     12 C6          7.0560    3.8400    0.4620 c         1 MOL      0.731836
     13 O3          6.1570    3.4330    1.1930 o         1 MOL     -0.701541
     14 O4          7.2840    5.0500    0.3180 o         1 MOL     -0.701541
     15 H4          7.1930    3.8220   -3.2410 hn        1 MOL      0.309504
     16 H5          8.0950    1.9510   -2.2490 h1        1 MOL     -0.052201
     17 H6          8.9020    3.2500   -0.6740 hc        1 MOL      0.037973
     18 H7          8.1440    1.9710    0.3330 hc        1 MOL      0.037973
     19 N2          6.0970    0.5200   -2.5890 n         1 MOL     -0.395537
     20 C7          5.4110   -0.7460   -2.7680 c3        1 MOL      0.059384
     21 C8          6.0880   -1.8330   -2.0910 c         1 MOL      0.378959
     22 O5          6.5140   -2.8010   -2.7500 o         1 MOL     -0.574182
     23 C9          3.8980   -0.5940   -2.5570 c3        1 MOL      0.052103
     24 C10         3.0770   -1.8880   -2.8270 c3        1 MOL     -0.079814
     25 C11         3.2400    0.6330   -3.2010 c3        1 MOL     -0.264379
     26 C12         3.1860   -2.2480   -4.2770 c3        1 MOL     -0.334281
     27 H8          6.6240    0.8150   -3.3950 hn        1 MOL      0.259738
     28 H9          5.5030   -0.8020   -3.8460 h1        1 MOL      0.063213
     29 H10         3.7230   -0.3980   -1.5020 hc        1 MOL     -0.030022
     30 H11         2.0430   -1.8020   -2.5160 hc        1 MOL      0.081197
     31 H12         3.5610   -2.6980   -2.2730 hc        1 MOL      0.081197
     32 H13         2.2820    0.4440   -3.6770 hc        1 MOL      0.062118
     33 H14         3.3760    1.5580   -2.6320 hc        1 MOL      0.062118
     34 H15         3.8250    0.8280   -4.1030 hc        1 MOL      0.062118
     35 H16         4.1910   -2.6080   -4.4850 hc        1 MOL      0.077934
     36 H17         2.5290   -3.0930   -4.4840 hc        1 MOL      0.077934
     37 H18         2.9390   -1.3440   -4.8430 hc        1 MOL      0.077934
     38 N3          6.0720   -1.8950   -0.7320 n         1 MOL      0.046009
     39 C13         6.9850   -2.7620   -0.0290 c3        1 MOL     -0.181311
     40 C14         6.3630   -4.1830    0.0490 c         1 MOL      0.711633
     41 O6          7.1150   -5.1260   -0.2100 o         1 MOL     -0.595670
     42 C15         7.3120   -2.1850    1.4200 c3        1 MOL     -0.332832
     43 C16         8.2100   -3.1660    2.1080 c         1 MOL      0.714601
     44 O7          9.4610   -3.0160    1.8660 o         1 MOL     -0.683921
     45 O8          7.8310   -4.0140    2.9490 o         1 MOL     -0.683921
     46 H19         5.8150   -1.0340   -0.2700 hn        1 MOL      0.271505
     47 H20         7.8720   -2.8690   -0.6520 h1        1 MOL      0.079275
     48 H21         6.3950   -1.9050    1.9320 hc        1 MOL      0.099718
     49 H22         7.8220   -1.2270    1.2830 hc        1 MOL      0.099718
     50 N4          5.0880   -4.3900    0.2920 n         1 MOL     -0.526332
     51 C17         4.0410   -3.4340    0.8290 c3        1 MOL      0.036218
     52 C18         2.9180   -4.1930    1.6020 c         1 MOL      0.886222
     53 O9          2.6890   -5.3760    1.3860 o         1 MOL     -0.640426
     54 H23         4.8550   -5.3540    0.0770 hn        1 MOL      0.260871
     55 H24         3.5870   -2.9090   -0.0060 h1        1 MOL      0.044854
     56 H25         4.4780   -2.6690    1.4660 h1        1 MOL      0.044854
     57 N5          2.1460   -3.5430    2.4560 n         1 MOL     -0.546780
     58 C19         2.3270   -2.1320    2.9220 c3        1 MOL     -0.155639
     59 C20         2.3870   -1.0770    1.7920 c         1 MOL      0.822455
     60 O10         3.3980   -0.4380    1.6200 o         1 MOL     -0.808587
     61 C21         3.4150   -2.1000    4.0440 c3        1 MOL     -0.190066
     62 C22         3.5130   -3.2730    4.9300 c         1 MOL      0.708464
     63 O11         4.5510   -3.9020    4.8780 o         1 MOL     -0.703499
     64 O12         2.5380   -3.6000    5.6320 o         1 MOL     -0.703499
     65 H26         1.5380   -4.0800    3.0630 hn        1 MOL      0.284844
     66 H27         1.4350   -1.8200    3.4470 h1        1 MOL      0.112324
     67 H28         3.1050   -1.3100    4.7300 hc        1 MOL      0.035696
     68 H29         4.3950   -1.8460    3.6470 hc        1 MOL      0.035696
     69 N6          1.3330   -0.8580    1.0770 n         1 MOL     -0.562337
     70 C23        -0.0840   -1.3990    1.2310 c3        1 MOL     -0.248546
     71 C24        -0.3740   -2.6140    0.4490 c         1 MOL      0.674825
     72 O13         0.4970   -3.0170   -0.2530 o         1 MOL     -0.579586
     73 H30         1.4960   -0.3010    0.2550 hn        1 MOL      0.421483
     74 H31        -0.7940   -0.6630    0.8550 h1        1 MOL      0.111415
     75 H32        -0.2730   -1.7500    2.2480 h1        1 MOL      0.111415
     76 N7         -1.5630   -3.2500    0.5870 n         1 MOL     -0.406363
     77 C25        -1.9020   -4.4440   -0.2270 c3        1 MOL     -0.081973
     78 C26        -2.4360   -4.2430   -1.6850 c         1 MOL      0.477958
     79 O14        -2.2090   -5.0930   -2.5060 o         1 MOL     -0.493945
     80 C27        -2.8160   -5.4140    0.4810 c3        1 MOL      0.142250
     81 C28        -4.0210   -4.8800    1.3130 c3        1 MOL     -0.121739
     82 C29        -5.1870   -4.3330    0.4480 c         1 MOL      0.598925
     83 N8         -6.1100   -5.1660    0.0060 n         1 MOL     -0.694851
     84 O15        -5.2350   -3.1510    0.0880 o         1 MOL     -0.608158
     85 H33        -2.1950   -2.8040    1.2310 hn        1 MOL      0.242510
     86 H34        -0.9320   -4.9420   -0.2600 h1        1 MOL      0.141725
     87 H35        -2.1730   -5.8670    1.2380 hc        1 MOL     -0.010205
     88 H36        -3.1090   -6.2050   -0.2060 hc        1 MOL     -0.010205
     89 H37        -3.6970   -4.0950    2.0030 hc        1 MOL      0.036946
     90 H38        -4.4220   -5.7260    1.8680 hc        1 MOL      0.036946
     91 H39        -6.1130   -6.1360    0.2850 hn        1 MOL      0.349976
     92 H40        -6.7840   -4.6900   -0.5900 hn        1 MOL      0.349976
     93 N9         -2.9520   -2.9960   -1.9760 n         1 MOL     -0.237751
     94 C30        -3.3520   -2.4440   -3.2580 c3        1 MOL     -0.164583
     95 C31        -4.6940   -1.6020   -3.3550 c         1 MOL      0.407006
     96 O16        -5.0740   -1.1070   -4.4200 o         1 MOL     -0.523492
     97 C32        -2.2520   -1.6260   -3.9960 c3        1 MOL      0.264678
     98 C33        -1.0190   -2.5640   -4.1440 c3        1 MOL     -0.278768
     99 C34        -1.8460   -0.4450   -3.3240 c3        1 MOL     -0.278768
    100 H41        -2.9560   -2.3270   -1.2090 hn        1 MOL      0.173101
    101 H42        -3.5120   -3.2990   -3.9040 h1        1 MOL      0.117853
    102 H43        -2.6370   -1.3820   -4.9890 hc        1 MOL     -0.008731
    103 H44        -1.2860   -3.4930   -4.6580 hc        1 MOL      0.073195
    104 H45        -0.2520   -1.9680   -4.6480 hc        1 MOL      0.073195
    105 H46        -0.7020   -2.7940   -3.1250 hc        1 MOL      0.073195
    106 H47        -2.6200    0.3150   -3.1760 hc        1 MOL      0.073195
    107 H48        -1.4830   -0.6260   -2.3050 hc        1 MOL      0.073195
    108 H49        -1.0760    0.1320   -3.8330 hc        1 MOL      0.073195
    109 N10        -5.4040   -1.5290   -2.2020 n         1 MOL     -0.372682
    110 C35        -6.7790   -0.9950   -2.1520 c3        1 MOL      0.218927
    111 C36        -6.9130    0.3930   -1.3260 c         1 MOL      0.557332
    112 O17        -7.9420    1.0480   -1.4030 o         1 MOL     -0.572132
    113 C37        -7.6530   -2.0220   -1.5180 c3        1 MOL     -0.573768
    114 C38        -7.8320   -3.2540   -2.4050 c         1 MOL      0.765425
    115 N11        -7.8560   -3.1410   -3.7440 n         1 MOL     -0.801832
    116 O18        -8.0100   -4.3760   -2.0170 o         1 MOL     -0.580223
    117 H50        -4.9490   -1.9310   -1.3940 hn        1 MOL      0.316439
    118 H51        -7.0630   -0.6400   -3.1500 h1        1 MOL      0.033612
    119 H52        -8.6010   -1.4920   -1.3990 hc        1 MOL      0.174474
    120 H53        -7.2450   -2.3380   -0.5550 hc        1 MOL      0.174474
    121 H54        -7.8750   -2.2200   -4.1670 hn        1 MOL      0.369981
    122 H55        -7.8530   -3.9900   -4.2800 hn        1 MOL      0.369981
    123 N12        -5.8950    0.7410   -0.5940 n         1 MOL     -0.467555
    124 C39        -5.8520    1.8660    0.3780 c3        1 MOL      0.128932
    125 C40        -4.5030    2.6260    0.4160 c         1 MOL      0.518319
    126 O19        -3.4720    2.0020    0.1130 o         1 MOL     -0.500456
    127 C41        -6.2210    1.4380    1.8310 c3        1 MOL      0.022867
    128 C42        -7.4580    0.7280    2.1710 ca        1 MOL      0.035586
    129 C43        -8.6450    1.3590    2.5490 ca        1 MOL     -0.152942
    130 C44        -7.3990   -0.6710    2.1420 ca        1 MOL     -0.152942
    131 C45        -9.7600    0.5510    2.8990 ca        1 MOL     -0.218180
    132 C46        -8.5620   -1.5000    2.4260 ca        1 MOL     -0.218180
    133 C47        -9.7310   -0.8450    2.8030 ca        1 MOL      0.274183
    134 O20       -10.8120   -1.5970    3.2690 oh        1 MOL     -0.507816
    135 H56        -5.0740    0.1530   -0.5380 hn        1 MOL      0.208609
    136 H57        -6.6280    2.5740    0.1010 h1        1 MOL      0.041828
    137 H58        -6.1610    2.3540    2.4280 hc        1 MOL      0.051496
    138 H59        -5.3820    0.8700    2.2430 hc        1 MOL      0.051496
    139 H60        -8.7160    2.4350    2.4490 ha        1 MOL      0.113458
    140 H61        -6.4850   -1.1790    1.8460 ha        1 MOL      0.113458
    141 H62       -10.6520    0.9890    3.3460 ha        1 MOL      0.117020
    142 H63        -8.4720   -2.5610    2.2910 ha        1 MOL      0.117020
    143 H64       -11.6410   -1.1150    3.3270 ho        1 MOL      0.356159
    144 N13        -4.5060    3.9390    0.7120 n         1 MOL     -0.624985
    145 C48        -3.3780    4.7670    1.2130 c3        1 MOL      0.240228
    146 C49        -2.1420    5.0450    0.3850 c         1 MOL      0.273379
    147 O21        -1.3440    5.9190    0.7580 o         1 MOL     -0.491052
    148 C50        -3.0650    4.5740    2.7050 c3        1 MOL      0.014028
    149 C51        -4.3140    4.8280    3.4990 c3        1 MOL     -0.206886
    150 C52        -4.0550    5.0640    4.9650 c         1 MOL      0.715490
    151 O22        -4.4230    4.2020    5.7510 o         1 MOL     -0.733102
    152 O23        -3.4360    6.1410    5.2990 o         1 MOL     -0.733102
    153 H65        -5.4070    4.3900    0.6140 hn        1 MOL      0.318667
    154 H66        -3.7750    5.7830    1.1430 h1        1 MOL      0.059296
    155 H67        -2.2960    5.2880    2.9950 hc        1 MOL      0.040073
    156 H68        -2.7430    3.5390    2.8000 hc        1 MOL      0.040073
    157 H69        -4.9760    3.9720    3.4460 hc        1 MOL     -0.005625
    158 H70        -4.8370    5.6400    2.9930 hc        1 MOL     -0.005625
    159 N14        -1.9890    4.3680   -0.7630 n         1 MOL     -0.237907
    160 C53        -0.8070    4.3480   -1.6130 c3        1 MOL     -0.024678
    161 C54        -1.0590    5.3160   -2.8340 c         1 MOL      0.425855
    162 O24        -0.1240    5.6140   -3.5300 o         1 MOL     -0.507994
    163 C55        -0.4740    2.8850   -2.0120 c3        1 MOL      0.006882
    164 C56        -0.1410    1.9320   -0.9120 c3        1 MOL      0.272433
    165 C57         1.3290    2.2140   -0.4410 c         1 MOL      0.566345
    166 O25         1.6750    3.2870    0.1690 o         1 MOL     -0.674210
    167 O26         2.1050    1.2690   -0.4870 o         1 MOL     -0.674210
    168 H71        -2.6510    3.6500   -1.0180 hn        1 MOL      0.192480
    169 H72         0.0540    4.7690   -1.0820 h1        1 MOL      0.112682
    170 H73         0.3840    2.8510   -2.6910 hc        1 MOL     -0.004372
    171 H74        -1.3230    2.5730   -2.6250 hc        1 MOL     -0.004372
    172 H75        -0.2660    0.9000   -1.2370 hc        1 MOL     -0.084335
    173 H76        -0.8170    1.9870   -0.0540 hc        1 MOL     -0.084335
    174 N15        -2.2930    5.7950   -3.0350 n         1 MOL     -0.165030
    175 C58        -2.7370    6.4750   -4.2000 c3        1 MOL     -0.302840
    176 H77        -2.2860    7.4670   -4.2350 h1        1 MOL      0.109982
    177 H78        -2.4410    5.9120   -5.0850 h1        1 MOL      0.109982
    178 H79        -3.8220    6.5710   -4.1740 h1        1 MOL      0.109982
    179 H80        -2.9390    5.5700   -2.2870 hn        1 MOL      0.180655
    180 Ca1         4.0180    2.0800    1.0250 Ca        1 MOL      1.760531
    181 O27         3.4280    4.8680    1.7620 oh        1 MOL     -0.813362
    182 H81         2.4700    4.7890    1.8030 ho        1 MOL      0.403662
    183 H82         3.5790    5.6080    1.1820 ho        1 MOL      0.403662
    184 O28         5.7990    1.1140    3.0840 oh        1 MOL     -0.813362
    185 H83         5.7190    0.5900    3.8750 ho        1 MOL      0.403662
    186 H84         6.3560    1.8550    3.3420 ho        1 MOL      0.403662
    187 O29         2.6930    2.5950    3.3820 oh        1 MOL     -0.813362
    188 H85         1.8200    2.2030    3.4260 ho        1 MOL      0.403662
    189 H86         2.9650    2.6580    4.3020 ho        1 MOL      0.403662
@<TRIPOS>BOND
     1    1    2 1   
     2    1    4 1   
     3    1    5 1   
     4    1    6 1   
     5    2    3 2   
     6    2    7 1   
     7    7    8 1   
     8    7   15 1   
     9    8    9 1   
    10    8   11 1   
    11    8   16 1   
    12    9   10 2   
    13    9   19 1   
    14   11   12 1   
    15   11   17 1   
    16   11   18 1   
    17   12   13 1   
    18   12   14 1   
    19   19   20 1   
    20   19   27 1   
    21   20   21 1   
    22   20   23 1   
    23   20   28 1   
    24   21   22 2   
    25   21   38 1   
    26   23   24 1   
    27   23   25 1   
    28   23   29 1   
    29   24   26 1   
    30   24   30 1   
    31   24   31 1   
    32   25   32 1   
    33   25   33 1   
    34   25   34 1   
    35   26   35 1   
    36   26   36 1   
    37   26   37 1   
    38   38   39 1   
    39   38   46 1   
    40   39   40 1   
    41   39   42 1   
    42   39   47 1   
    43   40   41 2   
    44   40   50 1   
    45   42   43 1   
    46   42   48 1   
    47   42   49 1   
    48   43   44 1   
    49   43   45 1   
    50   50   51 1   
    51   50   54 1   
    52   51   52 1   
    53   51   55 1   
    54   51   56 1   
    55   52   53 2   
    56   52   57 1   
    57   57   58 1   
    58   57   65 1   
    59   58   59 1   
    60   58   61 1   
    61   58   66 1   
    62   59   60 2   
    63   59   69 1   
    64   61   62 1   
    65   61   67 1   
    66   61   68 1   
    67   62   63 1   
    68   62   64 1   
    69   69   70 1   
    70   69   73 1   
    71   70   71 1   
    72   70   74 1   
    73   70   75 1   
    74   71   72 2   
    75   71   76 1   
    76   76   77 1   
    77   76   85 1   
    78   77   78 1   
    79   77   80 1   
    80   77   86 1   
    81   78   79 2   
    82   78   93 1   
    83   80   81 1   
    84   80   87 1   
    85   80   88 1   
    86   81   82 1   
    87   81   89 1   
    88   81   90 1   
    89   82   83 1   
    90   82   84 2   
    91   83   91 1   
    92   83   92 1   
    93   93   94 1   
    94   93  100 1   
    95   94   95 1   
    96   94   97 1   
    97   94  101 1   
    98   95   96 2   
    99   95  109 1   
   100   97   98 1   
   101   97   99 1   
   102   97  102 1   
   103   98  103 1   
   104   98  104 1   
   105   98  105 1   
   106   99  106 1   
   107   99  107 1   
   108   99  108 1   
   109  109  110 1   
   110  109  117 1   
   111  110  111 1   
   112  110  113 1   
   113  110  118 1   
   114  111  112 2   
   115  111  123 1   
   116  113  114 1   
   117  113  119 1   
   118  113  120 1   
   119  114  115 1   
   120  114  116 2   
   121  115  121 1   
   122  115  122 1   
   123  123  124 1   
   124  123  135 1   
   125  124  125 1   
   126  124  127 1   
   127  124  136 1   
   128  125  126 2   
   129  125  144 1   
   130  127  128 1   
   131  127  137 1   
   132  127  138 1   
   133  128  129 ar  
   134  128  130 ar  
   135  129  131 ar  
   136  129  139 1   
   137  130  132 ar  
   138  130  140 1   
   139  131  133 ar  
   140  131  141 1   
   141  132  133 ar  
   142  132  142 1   
   143  133  134 1   
   144  134  143 1   
   145  144  145 1   
   146  144  153 1   
   147  145  146 1   
   148  145  148 1   
   149  145  154 1   
   150  146  147 2   
   151  146  159 1   
   152  148  149 1   
   153  148  155 1   
   154  148  156 1   
   155  149  150 1   
   156  149  157 1   
   157  149  158 1   
   158  150  151 1   
   159  150  152 1   
   160  159  160 1   
   161  159  168 1   
   162  160  161 1   
   163  160  163 1   
   164  160  169 1   
   165  161  162 2   
   166  161  174 1   
   167  163  164 1   
   168  163  170 1   
   169  163  171 1   
   170  164  165 1   
   171  164  172 1   
   172  164  173 1   
   173  165  166 1   
   174  165  167 1   
   175  174  175 1   
   176  174  179 1   
   177  175  176 1   
   178  175  177 1   
   179  175  178 1   
   180  181  182 1   
   181  181  183 1   
   182  184  185 1   
   183  184  186 1   
   184  187  188 1   
   185  187  189 1   
@<TRIPOS>SUBSTRUCTURE
     1 MOL         1 TEMP              0 ****  ****    0 ROOT
