@<TRIPOS>MOLECULE
MOL
  192   187     1     0     0
SMALL
resp


@<TRIPOS>ATOM
      1 C1          9.6040    0.6910    2.4240 c3        1 MOL     -0.576148
      2 C2          8.5210    0.7740    1.3550 c         1 MOL      0.706177
      3 O1          7.6800    1.6710    1.3940 o         1 MOL     -0.596068
      4 H1          9.5660    1.5830    3.0490 hc        1 MOL      0.145935
      5 H2          9.4380   -0.1910    3.0430 hc        1 MOL      0.145935
      6 H3         10.5820    0.6230    1.9470 hc        1 MOL      0.145935
      7 N1          8.6670   -0.0790    0.3230 n         1 MOL     -0.408098
      8 C3          7.6980   -0.1870   -0.8470 c3        1 MOL     -0.014506
      9 C4          7.1560   -1.5950   -1.1370 c         1 MOL      0.555603
     10 O2          6.9600   -1.9590   -2.3200 o         1 MOL     -0.451744
     11 C5          8.3080    0.5640   -2.0780 c3        1 MOL     -0.230454
     12 C6          9.6500   -0.0580   -2.5970 c         1 MOL      0.673239
     13 O3          9.9230   -1.2250   -2.2780 o         1 MOL     -0.633563
     14 O4         10.4270    0.7160   -3.2540 o         1 MOL     -0.633563
     15 H4          9.3990   -0.7460    0.4690 hn        1 MOL      0.238399
     16 H5          6.7880    0.3670   -0.6150 h1        1 MOL      0.092575
     17 H6          8.5120    1.5850   -1.7540 hc        1 MOL      0.084130
     18 H7          7.5690    0.7550   -2.8480 hc        1 MOL      0.084130
     19 N2          6.7950   -2.2740   -0.0470 n         1 MOL     -0.513051
     20 C7          6.2550   -3.6980    0.0280 c3        1 MOL      0.169653
     21 C8          4.7510   -3.8130   -0.4030 c         1 MOL      0.375676
     22 O5          4.4130   -4.7980   -1.0660 o         1 MOL     -0.546661
     23 C9          6.5520   -4.2340    1.4340 c3        1 MOL     -0.287057
     24 C10         8.0630   -4.2970    1.7620 c3        1 MOL      0.392686
     25 C11         8.3660   -4.7920    3.1280 c3        1 MOL     -0.247715
     26 C12         9.8410   -4.6770    3.5370 c3        1 MOL      0.174863
     27 N3         10.0540   -5.2160    4.8320 n4        1 MOL     -0.157756
     28 H8          6.8320   -1.7220    0.8050 hn        1 MOL      0.209520
     29 H9          6.9030   -4.2070   -0.6890 h1        1 MOL      0.102761
     30 H10         6.2560   -5.2840    1.3910 hc        1 MOL      0.069819
     31 H11         6.0120   -3.6940    2.2130 hc        1 MOL      0.069819
     32 H12         8.3680   -3.2480    1.7520 hc        1 MOL     -0.046165
     33 H13         8.6120   -4.8710    1.0200 hc        1 MOL     -0.046165
     34 H14         8.0790   -5.8410    3.1000 hc        1 MOL      0.050100
     35 H15         7.8240   -4.2420    3.8870 hc        1 MOL      0.050100
     36 H16        10.0660   -3.6050    3.5270 hx        1 MOL      0.021080
     37 H17        10.3990   -5.1850    2.7530 hx        1 MOL      0.021080
     38 H18         9.8400   -6.2120    4.8720 hn        1 MOL      0.224485
     39 H19        11.0350   -5.2470    5.0750 hn        1 MOL      0.224485
     40 H20         9.4090   -4.7920    5.4770 hn        1 MOL      0.224485
     41 N4          3.7950   -2.9180   -0.3070 n         1 MOL     -0.193450
     42 C13         3.7960   -1.7580    0.5600 c3        1 MOL     -0.032755
     43 C14         3.9410   -0.5040   -0.2690 c         1 MOL      0.070989
     44 O6          3.8770   -0.5290   -1.5000 o         1 MOL     -0.357676
     45 C15         2.5340   -1.7230    1.4350 c3        1 MOL     -0.376987
     46 C16         1.1710   -1.9470    0.7400 c         1 MOL      0.752658
     47 O7          0.9430   -1.4640   -0.3340 o         1 MOL     -0.659779
     48 O8          0.2350   -2.5670    1.2780 o         1 MOL     -0.659779
     49 H21         2.9310   -3.1190   -0.7870 hn        1 MOL      0.324669
     50 H22         4.6240   -1.8930    1.2590 h1        1 MOL      0.152516
     51 H23         2.4790   -0.7800    1.9940 hc        1 MOL      0.090434
     52 H24         2.5930   -2.5100    2.1860 hc        1 MOL      0.090434
     53 N5          4.1360    0.6690    0.4050 n         1 MOL     -0.210153
     54 C17         4.3870    1.9310   -0.2920 c3        1 MOL     -0.065375
     55 C18         2.9970    2.4700   -0.7140 c         1 MOL      0.611012
     56 O9          1.9270    1.8560   -0.4810 o         1 MOL     -0.543489
     57 H25         4.2040    0.6400    1.4070 hn        1 MOL      0.242647
     58 H26         5.0930    1.9050   -1.1130 h1        1 MOL      0.099034
     59 H27         4.8460    2.6030    0.4340 h1        1 MOL      0.099034
     60 N6          2.9950    3.7290   -1.2370 n         1 MOL     -0.677881
     61 C19         1.9520    4.6730   -1.8070 c3        1 MOL      0.421187
     62 C20         2.4010    6.1000   -1.5230 c         1 MOL      0.463646
     63 O10         3.5370    6.3680   -1.1990 o         1 MOL     -0.525709
     64 C21         1.7360    4.3890   -3.2060 c3        1 MOL     -0.415673
     65 C22         1.2170    2.9610   -3.4270 c         1 MOL      0.740135
     66 O11         1.8480    2.1580   -4.0930 o         1 MOL     -0.659004
     67 O12         0.1310    2.6530   -2.9280 o         1 MOL     -0.659004
     68 H28         3.9490    4.0000   -1.4510 hn        1 MOL      0.316241
     69 H29         1.0420    4.4040   -1.2740 h1        1 MOL      0.079764
     70 H30         2.6680    4.5500   -3.7340 hc        1 MOL      0.084084
     71 H31         0.9840    5.1020   -3.5440 hc        1 MOL      0.084084
     72 N7          1.5350    7.0770   -1.6680 n         1 MOL     -0.465459
     73 C23         0.0660    6.9900   -1.8520 c3        1 MOL     -0.029609
     74 C24        -0.7550    6.3890   -0.7830 c         1 MOL      0.550696
     75 O13        -0.2850    6.4070    0.3500 o         1 MOL     -0.485691
     76 H32         1.9810    7.9760   -1.8120 hn        1 MOL      0.323939
     77 H33        -0.1540    6.4580   -2.7770 h1        1 MOL      0.058921
     78 H34        -0.3270    7.9870   -2.0170 h1        1 MOL      0.058921
     79 N8         -1.8310    5.8280   -1.1510 n         1 MOL     -0.536853
     80 C25        -2.6570    4.9810   -0.2580 c3        1 MOL      0.102120
     81 C26        -1.8420    3.8270    0.3800 c         1 MOL      0.475740
     82 O14        -1.1410    3.1270   -0.3600 o         1 MOL     -0.641345
     83 C27        -3.9450    4.4280   -0.9370 c3        1 MOL      0.349965
     84 C28        -4.9920    5.3740   -1.4850 c3        1 MOL     -0.314839
     85 O15        -4.5330    3.5280   -0.1180 oh        1 MOL     -0.608614
     86 H35        -1.9280    5.7200   -2.1430 hn        1 MOL      0.307943
     87 H36        -3.0180    5.6620    0.5130 h1        1 MOL      0.062519
     88 H37        -3.5710    3.8890   -1.8100 h1        1 MOL     -0.045090
     89 H38        -5.1820    3.1490   -0.7130 ho        1 MOL      0.412916
     90 H39        -5.3440    6.0860   -0.7340 hc        1 MOL      0.084179
     91 H40        -4.6490    6.0410   -2.2720 hc        1 MOL      0.084179
     92 H41        -5.8730    4.7980   -1.7740 hc        1 MOL      0.084179
     93 N9         -2.0400    3.5680    1.6630 n         1 MOL     -0.423020
     94 C29        -1.3400    2.6290    2.5440 c3        1 MOL      0.006097
     95 C30        -1.6690    1.1520    2.2090 c         1 MOL      0.623918
     96 O16        -1.2730    0.6370    1.1720 o         1 MOL     -0.526868
     97 C31         0.1740    2.9010    2.5840 c3        1 MOL      0.019007
     98 C32         0.5530    4.3170    3.1410 c3        1 MOL     -0.019006
     99 C33         0.8920    1.8460    3.4650 c3        1 MOL     -0.573667
    100 C34        -0.3240    4.7970    4.2560 c3        1 MOL     -0.011174
    101 H42        -2.8620    4.0570    1.9720 hn        1 MOL      0.293241
    102 H43        -1.8110    2.7410    3.5160 h1        1 MOL      0.062257
    103 H44         0.6220    2.8460    1.5890 hc        1 MOL      0.098427
    104 H45         0.5290    5.0380    2.3250 hc        1 MOL      0.035861
    105 H46         1.5680    4.2980    3.5450 hc        1 MOL      0.035861
    106 H47         0.5010    1.6880    4.4760 hc        1 MOL      0.157339
    107 H48         0.9850    0.9230    2.8820 hc        1 MOL      0.157339
    108 H49         1.8650    2.2270    3.7550 hc        1 MOL      0.157339
    109 H50         0.1330    5.5890    4.8410 hc        1 MOL     -0.006676
    110 H51        -1.2560    5.1780    3.8260 hc        1 MOL     -0.006676
    111 H52        -0.5180    3.9140    4.8670 hc        1 MOL     -0.006676
    112 N10        -2.3870    0.4540    3.0700 n         1 MOL     -0.286935
    113 C35        -2.6560   -0.9720    2.9870 c3        1 MOL     -0.151124
    114 C36        -4.1570   -1.1320    3.1920 c         1 MOL      0.383757
    115 O17        -4.6720   -2.2500    3.4480 o         1 MOL     -0.566054
    116 C37        -1.8710   -1.7730    4.0470 c3        1 MOL      0.385574
    117 C38        -2.1580   -1.4590    5.4600 c3        1 MOL     -0.305499
    118 O18        -0.5220   -1.6570    3.9170 oh        1 MOL     -0.594073
    119 H53        -2.5420    0.8570    3.9790 hn        1 MOL      0.220150
    120 H54        -2.3830   -1.3530    2.0060 h1        1 MOL      0.130715
    121 H55        -2.1430   -2.8320    3.9770 h1        1 MOL      0.030054
    122 H56        -0.1910   -1.9640    3.0730 ho        1 MOL      0.335565
    123 H57        -1.7780   -0.4720    5.7250 hc        1 MOL      0.075157
    124 H58        -3.2180   -1.6280    5.6120 hc        1 MOL      0.075157
    125 H59        -1.7100   -2.1920    6.1260 hc        1 MOL      0.075157
    126 N11        -4.8860   -0.0600    3.0740 n         1 MOL     -0.104533
    127 C39        -6.3670   -0.1450    2.8970 c3        1 MOL      0.020138
    128 C40        -6.8880   -0.6360    1.5050 c         1 MOL      0.486738
    129 O19        -7.3480    0.2130    0.7390 o         1 MOL     -0.501239
    130 C41        -6.9510    1.2300    3.3400 c3        1 MOL      0.347570
    131 C42        -7.3560    1.2180    4.7640 c3        1 MOL     -0.173644
    132 O20        -5.9190    2.2270    3.0450 oh        1 MOL     -0.586197
    133 H60        -4.4440    0.8300    2.9260 hn        1 MOL      0.139466
    134 H61        -6.7450   -0.8870    3.6010 h1        1 MOL      0.019162
    135 H62        -7.8540    1.3460    2.7410 h1        1 MOL     -0.017013
    136 H63        -6.2130    2.6050    2.2130 ho        1 MOL      0.356114
    137 H64        -6.4990    0.9330    5.3780 hc        1 MOL      0.042416
    138 H65        -7.6710    2.2350    4.9720 hc        1 MOL      0.042416
    139 H66        -8.2030    0.5880    5.0520 hc        1 MOL      0.042416
    140 N12        -6.6380   -1.9240    1.2480 n         1 MOL     -0.679955
    141 C43        -6.5300   -2.5100   -0.0430 c3        1 MOL      0.408696
    142 C44        -5.3130   -2.0930   -0.8710 c         1 MOL      0.469873
    143 O21        -4.9300   -0.9180   -0.6970 o         1 MOL     -0.505573
    144 C45        -7.8200   -2.5010   -0.8340 c3        1 MOL     -0.341579
    145 C46        -9.1400   -2.7730   -0.0840 c3        1 MOL     -0.054754
    146 C47       -10.3400   -2.9450   -1.0710 c3        1 MOL     -0.003171
    147 C48       -11.6490   -2.8950   -0.2080 c3        1 MOL      0.128903
    148 N13       -12.9260   -2.8240   -0.8940 n4        1 MOL     -0.254770
    149 H67        -6.1510   -2.4070    1.9810 hn        1 MOL      0.363299
    150 H68        -6.4620   -3.5580    0.2410 h1        1 MOL     -0.010810
    151 H69        -7.6930   -3.1210   -1.7150 hc        1 MOL      0.087862
    152 H70        -7.8050   -1.4900   -1.2340 hc        1 MOL      0.087862
    153 H71        -9.2630   -1.8490    0.4760 hc        1 MOL      0.076959
    154 H72        -9.0220   -3.6770    0.5130 hc        1 MOL      0.076959
    155 H73       -10.2190   -3.9260   -1.5400 hc        1 MOL      0.039190
    156 H74       -10.4120   -2.1670   -1.8400 hc        1 MOL      0.039190
    157 H75       -11.6050   -2.0030    0.4150 hx        1 MOL      0.022016
    158 H76       -11.7090   -3.6630    0.5600 hx        1 MOL      0.022016
    159 H77       -13.0280   -3.5300   -1.5990 hn        1 MOL      0.229650
    160 H78       -13.6020   -2.9650   -0.1520 hn        1 MOL      0.229650
    161 H79       -13.0300   -1.9070   -1.2920 hn        1 MOL      0.229650
    162 N14        -4.7130   -3.0030   -1.6080 n         1 MOL     -0.558802
    163 C49        -3.4870   -2.7820   -2.3650 c3        1 MOL      0.277851
    164 C50        -2.2340   -2.4250   -1.5080 c         1 MOL      0.173604
    165 O22        -1.4510   -1.5750   -1.8670 o         1 MOL     -0.453813
    166 C51        -3.1940   -4.0380   -3.1770 c3        1 MOL      0.222788
    167 C52        -4.0550   -4.1190   -4.4210 c3        1 MOL     -0.218966
    168 C53        -3.9300   -5.3950   -5.1910 c         1 MOL      0.674895
    169 O23        -3.0210   -5.6600   -5.9970 o         1 MOL     -0.622933
    170 O24        -4.7210   -6.3170   -4.8710 o         1 MOL     -0.622933
    171 H80        -5.1790   -3.8970   -1.6490 hn        1 MOL      0.327501
    172 H81        -3.5280   -1.9380   -3.0550 h1        1 MOL      0.012373
    173 H82        -3.3730   -4.9140   -2.5680 hc        1 MOL     -0.007887
    174 H83        -2.1640   -3.9740   -3.5230 hc        1 MOL     -0.007887
    175 H84        -3.8680   -3.2520   -5.0420 hc        1 MOL     -0.004294
    176 H85        -5.0630   -4.2540   -4.0240 hc        1 MOL     -0.004294
    177 N15        -1.9440   -3.0450   -0.3570 n         1 MOL     -0.129753
    178 C54        -2.5030   -4.3310    0.0820 c3        1 MOL      0.025545
    179 H86        -2.2610   -5.1020   -0.6500 h1        1 MOL      0.005693
    180 H87        -2.0770   -4.6020    1.0480 h1        1 MOL      0.005693
    181 H88        -3.5860   -4.2460    0.1740 h1        1 MOL      0.005693
    182 H89        -1.1500   -2.6840    0.1510 hn        1 MOL      0.242959
    183 Ca1        -0.2720    0.6770   -1.4890 Ca        1 MOL      1.743110
    184 O25        -2.9400    0.8970   -1.2750 oh        1 MOL     -0.841879
    185 H90        -3.4190    1.4610   -1.8880 ho        1 MOL      0.400912
    186 H91        -3.5770    0.2460   -1.0060 ho        1 MOL      0.400912
    187 O26        -1.4030    0.3860   -3.9470 oh        1 MOL     -0.841879
    188 H92        -2.3290    0.3470   -4.1930 ho        1 MOL      0.400912
    189 H93        -0.9480    0.5560   -4.7730 ho        1 MOL      0.400912
    190 O27         1.4900   -0.2280   -3.1930 oh        1 MOL     -0.841879
    191 H94         1.7930    0.5880   -3.5970 ho        1 MOL      0.400912
    192 H95         2.2850   -0.6390   -2.8470 ho        1 MOL      0.400912
@<TRIPOS>BOND
     1    1    2 1   
     2    1    4 1   
     3    1    5 1   
     4    1    6 1   
     5    2    3 2   
     6    2    7 1   
     7    7    8 1   
     8    7   15 1   
     9    8    9 1   
    10    8   11 1   
    11    8   16 1   
    12    9   10 2   
    13    9   19 1   
    14   11   12 1   
    15   11   17 1   
    16   11   18 1   
    17   12   13 1   
    18   12   14 1   
    19   19   20 1   
    20   19   28 1   
    21   20   21 1   
    22   20   23 1   
    23   20   29 1   
    24   21   22 2   
    25   21   41 1   
    26   23   24 1   
    27   23   30 1   
    28   23   31 1   
    29   24   25 1   
    30   24   32 1   
    31   24   33 1   
    32   25   26 1   
    33   25   34 1   
    34   25   35 1   
    35   26   27 1   
    36   26   36 1   
    37   26   37 1   
    38   27   38 1   
    39   27   39 1   
    40   27   40 1   
    41   41   42 1   
    42   41   49 1   
    43   42   43 1   
    44   42   45 1   
    45   42   50 1   
    46   43   44 2   
    47   43   53 1   
    48   45   46 1   
    49   45   51 1   
    50   45   52 1   
    51   46   47 1   
    52   46   48 1   
    53   53   54 1   
    54   53   57 1   
    55   54   55 1   
    56   54   58 1   
    57   54   59 1   
    58   55   56 2   
    59   55   60 1   
    60   60   61 1   
    61   60   68 1   
    62   61   62 1   
    63   61   64 1   
    64   61   69 1   
    65   62   63 2   
    66   62   72 1   
    67   64   65 1   
    68   64   70 1   
    69   64   71 1   
    70   65   66 1   
    71   65   67 1   
    72   72   73 1   
    73   72   76 1   
    74   73   74 1   
    75   73   77 1   
    76   73   78 1   
    77   74   75 2   
    78   74   79 1   
    79   79   80 1   
    80   79   86 1   
    81   80   81 1   
    82   80   83 1   
    83   80   87 1   
    84   81   82 2   
    85   81   93 1   
    86   83   84 1   
    87   83   85 1   
    88   83   88 1   
    89   84   90 1   
    90   84   91 1   
    91   84   92 1   
    92   85   89 1   
    93   93   94 1   
    94   93  101 1   
    95   94   95 1   
    96   94   97 1   
    97   94  102 1   
    98   95   96 2   
    99   95  112 1   
   100   97   98 1   
   101   97   99 1   
   102   97  103 1   
   103   98  100 1   
   104   98  104 1   
   105   98  105 1   
   106   99  106 1   
   107   99  107 1   
   108   99  108 1   
   109  100  109 1   
   110  100  110 1   
   111  100  111 1   
   112  112  113 1   
   113  112  119 1   
   114  113  114 1   
   115  113  116 1   
   116  113  120 1   
   117  114  115 2   
   118  114  126 1   
   119  116  117 1   
   120  116  118 1   
   121  116  121 1   
   122  117  123 1   
   123  117  124 1   
   124  117  125 1   
   125  118  122 1   
   126  126  127 1   
   127  126  133 1   
   128  127  128 1   
   129  127  130 1   
   130  127  134 1   
   131  128  129 2   
   132  128  140 1   
   133  130  131 1   
   134  130  132 1   
   135  130  135 1   
   136  131  137 1   
   137  131  138 1   
   138  131  139 1   
   139  132  136 1   
   140  140  141 1   
   141  140  149 1   
   142  141  142 1   
   143  141  144 1   
   144  141  150 1   
   145  142  143 2   
   146  142  162 1   
   147  144  145 1   
   148  144  151 1   
   149  144  152 1   
   150  145  146 1   
   151  145  153 1   
   152  145  154 1   
   153  146  147 1   
   154  146  155 1   
   155  146  156 1   
   156  147  148 1   
   157  147  157 1   
   158  147  158 1   
   159  148  159 1   
   160  148  160 1   
   161  148  161 1   
   162  162  163 1   
   163  162  171 1   
   164  163  164 1   
   165  163  166 1   
   166  163  172 1   
   167  164  165 2   
   168  164  177 1   
   169  166  167 1   
   170  166  173 1   
   171  166  174 1   
   172  167  168 1   
   173  167  175 1   
   174  167  176 1   
   175  168  169 1   
   176  168  170 1   
   177  177  178 1   
   178  177  182 1   
   179  178  179 1   
   180  178  180 1   
   181  178  181 1   
   182  184  185 1   
   183  184  186 1   
   184  187  188 1   
   185  187  189 1   
   186  190  191 1   
   187  190  192 1   
@<TRIPOS>SUBSTRUCTURE
     1 MOL         1 TEMP              0 ****  ****    0 ROOT
