@<TRIPOS>MOLECULE
MOL
  192   187     1     0     0
SMALL
resp


@<TRIPOS>ATOM
      1 C1         -9.3370    0.4220   -2.7970 c3        1 MOL     -0.676243
      2 C2         -8.2350    0.1510   -1.7490 c         1 MOL      0.816667
      3 O1         -7.0540    0.1570   -2.0680 o         1 MOL     -0.710292
      4 H1         -9.1740    1.4000   -3.2510 hc        1 MOL      0.173343
      5 H2         -9.3020   -0.3470   -3.5680 hc        1 MOL      0.173343
      6 H3        -10.3130    0.4060   -2.3110 hc        1 MOL      0.173343
      7 N1         -8.5250   -0.0230   -0.4930 n         1 MOL     -0.481838
      8 C3         -7.6430   -0.0120    0.6810 c3        1 MOL      0.002013
      9 C4         -6.9590   -1.2970    1.1040 c         1 MOL      0.472170
     10 O2         -6.5700   -1.5450    2.2170 o         1 MOL     -0.443444
     11 C5         -8.3470    0.7180    1.8380 c3        1 MOL     -0.334801
     12 C6         -9.6510    0.2120    2.3350 c         1 MOL      0.787963
     13 O3        -10.0690   -0.9050    2.0640 o         1 MOL     -0.675387
     14 O4        -10.3690    1.0170    3.0580 o         1 MOL     -0.675387
     15 H4         -9.4890   -0.1110   -0.2020 hn        1 MOL      0.252002
     16 H5         -6.8680    0.6720    0.3330 h1        1 MOL      0.129036
     17 H6         -8.6250    1.7010    1.4610 hc        1 MOL      0.100239
     18 H7         -7.6730    0.8250    2.6850 hc        1 MOL      0.100239
     19 N2         -6.6850   -2.1270    0.1170 n         1 MOL     -0.302790
     20 C7         -6.1800   -3.4900    0.2730 c3        1 MOL     -0.006919
     21 C8         -4.7820   -3.5590    0.7750 c         1 MOL      0.544269
     22 O5         -4.5210   -4.4860    1.5010 o         1 MOL     -0.555259
     23 C9         -6.3620   -4.2780   -1.1140 c3        1 MOL     -0.181662
     24 C10        -7.8700   -4.5080   -1.3500 c3        1 MOL      0.076930
     25 C11        -8.2200   -5.0820   -2.6680 c3        1 MOL     -0.113578
     26 C12        -9.7550   -4.9810   -2.8970 c3        1 MOL      0.191568
     27 N3        -10.1920   -5.4160   -4.2200 n4        1 MOL     -0.377203
     28 H8         -7.0930   -1.8830   -0.7680 hn        1 MOL      0.236003
     29 H9         -6.7930   -3.9330    1.0510 h1        1 MOL      0.099465
     30 H10        -5.8320   -5.2320   -1.0810 hc        1 MOL      0.083101
     31 H11        -5.7650   -3.7650   -1.8690 hc        1 MOL      0.083101
     32 H12        -8.3470   -3.5240   -1.3500 hc        1 MOL      0.019533
     33 H13        -8.3040   -5.1270   -0.5600 hc        1 MOL      0.019533
     34 H14        -8.0280   -6.1520   -2.7120 hc        1 MOL      0.037339
     35 H15        -7.7090   -4.5860   -3.4850 hc        1 MOL      0.037339
     36 H16       -10.0280   -3.9350   -2.7610 hx        1 MOL      0.028215
     37 H17       -10.1840   -5.5880   -2.1000 hx        1 MOL      0.028215
     38 H18        -9.9140   -6.3780   -4.3370 hn        1 MOL      0.277808
     39 H19       -11.2060   -5.4500   -4.3120 hn        1 MOL      0.277808
     40 H20        -9.7660   -4.7780   -4.8880 hn        1 MOL      0.277808
     41 N4         -3.8030   -2.7140    0.4140 n         1 MOL     -0.424324
     42 C13        -3.8060   -1.5980   -0.5690 c3        1 MOL      0.123443
     43 C14        -3.8450   -0.2090    0.1240 c         1 MOL      0.173357
     44 O6         -3.9460   -0.1840    1.3690 o         1 MOL     -0.421186
     45 C15        -2.4690   -1.7240   -1.4190 c3        1 MOL     -0.167569
     46 C16        -1.2430   -1.9270   -0.5220 c         1 MOL      0.760106
     47 O7         -0.6250   -0.8830   -0.1380 o         1 MOL     -0.729393
     48 O8         -0.9190   -3.1210   -0.1970 o         1 MOL     -0.729393
     49 H21        -2.9090   -2.8950    0.8230 hn        1 MOL      0.341007
     50 H22        -4.6450   -1.6550   -1.2590 h1        1 MOL      0.023917
     51 H23        -2.4070   -0.7380   -1.8810 hc        1 MOL      0.019505
     52 H24        -2.5290   -2.4940   -2.1930 hc        1 MOL      0.019505
     53 N5         -3.9990    0.8510   -0.6570 n         1 MOL      0.049859
     54 C17        -4.1800    2.2170   -0.2410 c3        1 MOL     -0.354573
     55 C18        -2.9690    2.7030    0.4390 c         1 MOL      0.934034
     56 O9         -1.8340    2.1810    0.3240 o         1 MOL     -0.961917
     57 H25        -4.0870    0.7270   -1.6570 hn        1 MOL      0.238424
     58 H26        -4.9800    2.2810    0.5070 h1        1 MOL      0.108174
     59 H27        -4.3810    2.7930   -1.1470 h1        1 MOL      0.108174
     60 N6         -3.1420    3.8730    0.9310 n         1 MOL     -0.519214
     61 C19        -2.1260    4.7720    1.5550 c3        1 MOL      0.090845
     62 C20        -2.4450    6.2420    1.1310 c         1 MOL      0.510226
     63 O10        -3.5900    6.6700    0.8490 o         1 MOL     -0.529724
     64 C21        -2.1700    4.5740    3.0770 c3        1 MOL     -0.297502
     65 C22        -1.7470    3.1510    3.3920 c         1 MOL      0.686174
     66 O11        -2.4730    2.4680    4.1630 o         1 MOL     -0.665011
     67 O12        -0.6750    2.7420    2.9020 o         1 MOL     -0.665011
     68 H28        -4.0580    4.2810    0.9990 hn        1 MOL      0.300320
     69 H29        -1.1680    4.5020    1.1130 h1        1 MOL      0.066238
     70 H30        -3.2060    4.6210    3.4040 hc        1 MOL      0.103140
     71 H31        -1.5720    5.3500    3.5570 hc        1 MOL      0.103140
     72 N7         -1.3930    7.0610    1.0630 n         1 MOL     -0.487625
     73 C23        -0.0150    6.8440    1.5310 c3        1 MOL      0.115893
     74 C24         0.9770    6.4150    0.4370 c         1 MOL      0.549570
     75 O13         0.6310    6.3980   -0.7770 o         1 MOL     -0.496854
     76 H32        -1.5480    7.8850    0.5030 hn        1 MOL      0.314982
     77 H33         0.0660    6.1530    2.3650 h1        1 MOL      0.028828
     78 H34         0.4070    7.7770    1.8910 h1        1 MOL      0.028828
     79 N8          2.1460    5.7990    0.8560 n         1 MOL     -0.617805
     80 C25         2.9490    4.9630   -0.0350 c3        1 MOL      0.050727
     81 C26         2.1580    3.7940   -0.6470 c         1 MOL      0.697772
     82 O14         1.4770    3.1070    0.1200 o         1 MOL     -0.691132
     83 C27         4.2310    4.3370    0.6850 c3        1 MOL      0.369418
     84 C28         5.2230    5.3980    1.2230 c3        1 MOL     -0.400181
     85 O15         4.9800    3.4890   -0.2540 oh        1 MOL     -0.617372
     86 H35         2.4050    5.7950    1.8420 hn        1 MOL      0.326390
     87 H36         3.2620    5.6010   -0.8590 h1        1 MOL      0.063851
     88 H37         3.8360    3.7040    1.4760 h1        1 MOL      0.044224
     89 H38         4.9800    2.6070    0.1150 ho        1 MOL      0.370814
     90 H39         5.7270    5.7030    0.3120 hc        1 MOL      0.108446
     91 H40         4.6830    6.1920    1.7400 hc        1 MOL      0.108446
     92 H41         5.9390    4.9610    1.9100 hc        1 MOL      0.108446
     93 N9          2.2980    3.5170   -1.9440 n         1 MOL     -0.560010
     94 C29         1.6140    2.3720   -2.7000 c3        1 MOL     -0.011823
     95 C30         2.0330    0.9480   -2.2630 c         1 MOL      0.599239
     96 O16         1.8610    0.6210   -1.1030 o         1 MOL     -0.549311
     97 C31         0.0220    2.5360   -2.6760 c3        1 MOL     -0.141379
     98 C32        -0.5400    3.9000   -3.2140 c3        1 MOL      0.196618
     99 C33        -0.6120    1.3910   -3.5220 c3        1 MOL     -0.475084
    100 C34        -1.8790    4.3090   -2.7470 c3        1 MOL     -0.269423
    101 H42         2.9080    4.0980   -2.5040 hn        1 MOL      0.310796
    102 H43         1.9700    2.5040   -3.7150 h1        1 MOL      0.061979
    103 H44        -0.3510    2.5020   -1.6550 hc        1 MOL      0.315037
    104 H45        -0.6100    3.8630   -4.3010 hc        1 MOL     -0.026795
    105 H46         0.1930    4.6680   -2.9510 hc        1 MOL     -0.026795
    106 H47        -0.6120    0.5220   -2.8570 hc        1 MOL      0.113684
    107 H48        -1.5890    1.7600   -3.8290 hc        1 MOL      0.113684
    108 H49         0.0850    1.1340   -4.3270 hc        1 MOL      0.113684
    109 H50        -2.5720    3.4560   -2.7580 hc        1 MOL      0.072029
    110 H51        -1.8240    4.5050   -1.6790 hc        1 MOL      0.072029
    111 H52        -2.1600    5.2930   -3.1110 hc        1 MOL      0.072029
    112 N10         2.4300    0.0510   -3.1610 n         1 MOL     -0.247546
    113 C35         2.7430   -1.3300   -2.8800 c3        1 MOL     -0.199139
    114 C36         4.2260   -1.5780   -3.1200 c         1 MOL      0.559741
    115 O17         4.6010   -2.7760   -3.1970 o         1 MOL     -0.575275
    116 C37         1.7590   -2.2340   -3.7500 c3        1 MOL      0.499454
    117 C38         1.9090   -2.1110   -5.2670 c3        1 MOL     -0.407487
    118 O18         0.4590   -1.9860   -3.3400 oh        1 MOL     -0.437716
    119 H53         2.5350    0.4380   -4.0850 hn        1 MOL      0.211415
    120 H54         2.6000   -1.5600   -1.8280 h1        1 MOL      0.119898
    121 H55         1.8260   -3.2910   -3.5250 h1        1 MOL     -0.006206
    122 H56         0.6400   -1.6450   -2.4600 ho        1 MOL      0.158635
    123 H57         2.9820   -2.0320   -5.4830 hc        1 MOL      0.093677
    124 H58         1.3690   -2.8930   -5.8060 hc        1 MOL      0.093677
    125 H59         1.4240   -1.1940   -5.5860 hc        1 MOL      0.093677
    126 N11         5.0640   -0.5390   -3.2090 n         1 MOL     -0.349250
    127 C39         6.5290   -0.6520   -3.1260 c3        1 MOL      0.016031
    128 C40         6.8500   -0.9960   -1.6900 c         1 MOL      0.554632
    129 O19         7.2580   -0.1470   -0.9590 o         1 MOL     -0.459006
    130 C41         7.2410    0.6250   -3.6680 c3        1 MOL      0.261595
    131 C42         7.2910    0.8700   -5.1190 c3        1 MOL     -0.143068
    132 O20         6.7120    1.8110   -3.0960 oh        1 MOL     -0.600183
    133 H60         4.6170    0.3730   -3.1560 hn        1 MOL      0.189779
    134 H61         7.0300   -1.4170   -3.7180 h1        1 MOL      0.033841
    135 H62         8.2840    0.5410   -3.3460 h1        1 MOL      0.053894
    136 H63         6.0200    2.2040   -3.6230 ho        1 MOL      0.389739
    137 H64         8.0100    0.2990   -5.7150 hc        1 MOL      0.036140
    138 H65         6.3500    0.7110   -5.6310 hc        1 MOL      0.036140
    139 H66         7.5180    1.9250   -5.2790 hc        1 MOL      0.036140
    140 N12         6.6220   -2.2670   -1.3240 n         1 MOL     -0.682783
    141 C43         6.3180   -2.5720    0.0950 c3        1 MOL      0.350087
    142 C44         4.9660   -2.0640    0.6850 c         1 MOL      0.419987
    143 O21         4.3250   -1.2250    0.0610 o         1 MOL     -0.427007
    144 C45         7.6090   -2.2850    0.9260 c3        1 MOL     -0.432480
    145 C46         8.9830   -2.7000    0.3290 c3        1 MOL     -0.053265
    146 C47        10.2340   -2.3710    1.2500 c3        1 MOL      0.098062
    147 C48        11.4780   -2.8380    0.4820 c3        1 MOL     -0.100497
    148 N13        12.7530   -2.8000    1.2700 n4        1 MOL     -0.120568
    149 H67         6.3500   -2.8570   -2.1020 hn        1 MOL      0.360426
    150 H68         6.2250   -3.6430   -0.0550 h1        1 MOL      0.052259
    151 H69         7.4900   -2.8780    1.8340 hc        1 MOL      0.117223
    152 H70         7.6620   -1.2480    1.2500 hc        1 MOL      0.117223
    153 H71         9.1100   -2.0840   -0.5640 hc        1 MOL      0.056984
    154 H72         8.9850   -3.7550    0.0690 hc        1 MOL      0.056984
    155 H73        10.1680   -2.8700    2.2170 hc        1 MOL      0.030887
    156 H74        10.2890   -1.2960    1.3990 hc        1 MOL      0.030887
    157 H75        11.5290   -2.1700   -0.3730 hx        1 MOL      0.097547
    158 H76        11.3470   -3.8850    0.1850 hx        1 MOL      0.097547
    159 H77        12.9080   -2.0360    1.9130 hn        1 MOL      0.220883
    160 H78        12.8070   -3.6050    1.8790 hn        1 MOL      0.220883
    161 H79        13.6000   -2.6680    0.7340 hn        1 MOL      0.220883
    162 N14         4.5810   -2.6580    1.8110 n         1 MOL     -0.549832
    163 C49         3.3560   -2.3500    2.5830 c3        1 MOL      0.389473
    164 C50         2.1020   -2.3210    1.7090 c         1 MOL      0.045739
    165 O22         1.2920   -1.4470    1.9520 o         1 MOL     -0.472890
    166 C51         3.0660   -3.4710    3.6680 c3        1 MOL      0.101221
    167 C52         4.1570   -3.5650    4.6680 c3        1 MOL     -0.127319
    168 C53         3.8170   -4.6450    5.7180 c         1 MOL      0.723239
    169 O23         4.3040   -5.7310    5.5730 o         1 MOL     -0.653960
    170 O24         3.0250   -4.2990    6.5550 o         1 MOL     -0.653960
    171 H80         5.2450   -3.3230    2.1640 hn        1 MOL      0.296468
    172 H81         3.5100   -1.3600    3.0190 h1        1 MOL     -0.026068
    173 H82         3.0900   -4.4240    3.1240 hc        1 MOL      0.031030
    174 H83         2.1230   -3.3140    4.1910 hc        1 MOL      0.031030
    175 H84         4.3570   -2.5780    5.0990 hc        1 MOL     -0.054731
    176 H85         5.0770   -3.9140    4.1920 hc        1 MOL     -0.054731
    177 N15         1.8050   -3.1760    0.7060 n         1 MOL     -0.178337
    178 C54         2.4080   -4.5290    0.4260 c3        1 MOL     -0.088640
    179 H86         1.7090   -5.3080    0.7280 h1        1 MOL      0.045895
    180 H87         2.6160   -4.6220   -0.6400 h1        1 MOL      0.045895
    181 H88         3.3360   -4.6360    0.9890 h1        1 MOL      0.045895
    182 H89         0.8740   -3.0390    0.3270 hn        1 MOL      0.402521
    183 Ca1         0.3590    0.9670    1.2740 Ca        1 MOL      1.817267
    184 O25         3.1550    0.9990    1.3620 oh        1 MOL     -0.870565
    185 H90         3.6780    0.7430    2.1280 ho        1 MOL      0.422815
    186 H91         3.2650    0.2770    0.7470 ho        1 MOL      0.422815
    187 O26        -1.6480    0.0900    2.8440 oh        1 MOL     -0.870565
    188 H92        -1.7860    0.6680    3.5970 ho        1 MOL      0.422815
    189 H93        -2.4860    0.0820    2.3830 ho        1 MOL      0.422815
    190 O27         1.4160    0.7030    3.8690 oh        1 MOL     -0.870565
    191 H94         1.0020    0.0490    4.4260 ho        1 MOL      0.422815
    192 H95         2.2010    0.9680    4.3420 ho        1 MOL      0.422815
@<TRIPOS>BOND
     1    1    2 1   
     2    1    4 1   
     3    1    5 1   
     4    1    6 1   
     5    2    3 2   
     6    2    7 1   
     7    7    8 1   
     8    7   15 1   
     9    8    9 1   
    10    8   11 1   
    11    8   16 1   
    12    9   10 2   
    13    9   19 1   
    14   11   12 1   
    15   11   17 1   
    16   11   18 1   
    17   12   13 1   
    18   12   14 1   
    19   19   20 1   
    20   19   28 1   
    21   20   21 1   
    22   20   23 1   
    23   20   29 1   
    24   21   22 2   
    25   21   41 1   
    26   23   24 1   
    27   23   30 1   
    28   23   31 1   
    29   24   25 1   
    30   24   32 1   
    31   24   33 1   
    32   25   26 1   
    33   25   34 1   
    34   25   35 1   
    35   26   27 1   
    36   26   36 1   
    37   26   37 1   
    38   27   38 1   
    39   27   39 1   
    40   27   40 1   
    41   41   42 1   
    42   41   49 1   
    43   42   43 1   
    44   42   45 1   
    45   42   50 1   
    46   43   44 2   
    47   43   53 1   
    48   45   46 1   
    49   45   51 1   
    50   45   52 1   
    51   46   47 1   
    52   46   48 1   
    53   53   54 1   
    54   53   57 1   
    55   54   55 1   
    56   54   58 1   
    57   54   59 1   
    58   55   56 2   
    59   55   60 1   
    60   60   61 1   
    61   60   68 1   
    62   61   62 1   
    63   61   64 1   
    64   61   69 1   
    65   62   63 2   
    66   62   72 1   
    67   64   65 1   
    68   64   70 1   
    69   64   71 1   
    70   65   66 1   
    71   65   67 1   
    72   72   73 1   
    73   72   76 1   
    74   73   74 1   
    75   73   77 1   
    76   73   78 1   
    77   74   75 2   
    78   74   79 1   
    79   79   80 1   
    80   79   86 1   
    81   80   81 1   
    82   80   83 1   
    83   80   87 1   
    84   81   82 2   
    85   81   93 1   
    86   83   84 1   
    87   83   85 1   
    88   83   88 1   
    89   84   90 1   
    90   84   91 1   
    91   84   92 1   
    92   85   89 1   
    93   93   94 1   
    94   93  101 1   
    95   94   95 1   
    96   94   97 1   
    97   94  102 1   
    98   95   96 2   
    99   95  112 1   
   100   97   98 1   
   101   97   99 1   
   102   97  103 1   
   103   98  100 1   
   104   98  104 1   
   105   98  105 1   
   106   99  106 1   
   107   99  107 1   
   108   99  108 1   
   109  100  109 1   
   110  100  110 1   
   111  100  111 1   
   112  112  113 1   
   113  112  119 1   
   114  113  114 1   
   115  113  116 1   
   116  113  120 1   
   117  114  115 2   
   118  114  126 1   
   119  116  117 1   
   120  116  118 1   
   121  116  121 1   
   122  117  123 1   
   123  117  124 1   
   124  117  125 1   
   125  118  122 1   
   126  126  127 1   
   127  126  133 1   
   128  127  128 1   
   129  127  130 1   
   130  127  134 1   
   131  128  129 2   
   132  128  140 1   
   133  130  131 1   
   134  130  132 1   
   135  130  135 1   
   136  131  137 1   
   137  131  138 1   
   138  131  139 1   
   139  132  136 1   
   140  140  141 1   
   141  140  149 1   
   142  141  142 1   
   143  141  144 1   
   144  141  150 1   
   145  142  143 2   
   146  142  162 1   
   147  144  145 1   
   148  144  151 1   
   149  144  152 1   
   150  145  146 1   
   151  145  153 1   
   152  145  154 1   
   153  146  147 1   
   154  146  155 1   
   155  146  156 1   
   156  147  148 1   
   157  147  157 1   
   158  147  158 1   
   159  148  159 1   
   160  148  160 1   
   161  148  161 1   
   162  162  163 1   
   163  162  171 1   
   164  163  164 1   
   165  163  166 1   
   166  163  172 1   
   167  164  165 2   
   168  164  177 1   
   169  166  167 1   
   170  166  173 1   
   171  166  174 1   
   172  167  168 1   
   173  167  175 1   
   174  167  176 1   
   175  168  169 1   
   176  168  170 1   
   177  177  178 1   
   178  177  182 1   
   179  178  179 1   
   180  178  180 1   
   181  178  181 1   
   182  184  185 1   
   183  184  186 1   
   184  187  188 1   
   185  187  189 1   
   186  190  191 1   
   187  190  192 1   
@<TRIPOS>SUBSTRUCTURE
     1 MOL         1 TEMP              0 ****  ****    0 ROOT
