@<TRIPOS>MOLECULE
MOL
  175   173     1     0     0
SMALL
resp


@<TRIPOS>ATOM
      1 C1         -7.3830    8.1820    1.6540 c3        1 MOL     -0.341550
      2 C2         -8.2270    7.2450    0.7560 c         1 MOL      0.679893
      3 O1         -8.4790    7.5260   -0.3760 o         1 MOL     -0.572686
      4 H1         -7.9240    8.3840    2.5780 hc        1 MOL      0.069552
      5 H2         -6.4320    7.7030    1.8880 hc        1 MOL      0.069552
      6 H3         -7.1980    9.1200    1.1300 hc        1 MOL      0.069552
      7 N1         -8.6450    6.1470    1.3200 n         1 MOL     -0.423386
      8 C3         -9.3990    5.1130    0.6030 c3        1 MOL     -0.039394
      9 C4         -8.5230    4.4000   -0.3840 c         1 MOL      0.698711
     10 O2         -8.9430    4.2020   -1.5150 o         1 MOL     -0.576776
     11 C5         -9.9970    4.1360    1.6700 c3        1 MOL     -0.165221
     12 C6        -11.0420    3.3400    0.9990 c         1 MOL      0.760332
     13 O3        -12.1380    3.8970    0.7980 o         1 MOL     -0.743791
     14 O4        -10.8440    2.1560    0.7980 o         1 MOL     -0.743791
     15 H4         -8.3580    5.9360    2.2670 hn        1 MOL      0.254457
     16 H5        -10.2680    5.5750    0.1140 h1        1 MOL      0.091307
     17 H6        -10.4030    4.7370    2.4850 hc        1 MOL      0.010026
     18 H7         -9.2220    3.4900    2.1030 hc        1 MOL      0.010026
     19 N2         -7.2910    4.0120   -0.0690 n         1 MOL     -0.586331
     20 C7         -6.2640    3.2750   -0.8770 c3        1 MOL      0.260162
     21 C8         -5.2320    2.4410   -0.0430 c         1 MOL      0.508632
     22 O5         -4.8360    2.9010    1.0390 o         1 MOL     -0.532361
     23 C9         -5.4890    4.2680   -1.7620 c3        1 MOL     -0.270051
     24 H8         -6.9250    4.2260    0.8480 hn        1 MOL      0.255059
     25 H9         -6.7430    2.6010   -1.6020 h1        1 MOL      0.050735
     26 H10        -4.9600    4.9860   -1.1380 hc        1 MOL      0.077386
     27 H11        -4.7970    3.6700   -2.3540 hc        1 MOL      0.077386
     28 H12        -6.1600    4.8870   -2.3530 hc        1 MOL      0.077386
     29 N3         -4.7310    1.2430   -0.4140 n         1 MOL     -0.398265
     30 C10        -5.1380    0.2880   -1.4820 c3        1 MOL     -0.176130
     31 C11        -5.5110   -1.0740   -0.9350 c         1 MOL      0.675699
     32 O6         -5.0450   -1.4900    0.1320 o         1 MOL     -0.580344
     33 C12        -4.0700    0.2240   -2.5680 c3        1 MOL     -0.103068
     34 C13        -2.7620   -0.2990   -1.9900 c         1 MOL      0.665884
     35 O7         -1.8150    0.4650   -1.6830 o         1 MOL     -0.720522
     36 O8         -2.5520   -1.5190   -2.0700 o         1 MOL     -0.720522
     37 H13        -4.0040    0.9240    0.2150 hn        1 MOL      0.271845
     38 H14        -6.0440    0.7160   -1.9080 h1        1 MOL      0.090778
     39 H15        -4.0130    1.1930   -3.0720 hc        1 MOL      0.054127
     40 H16        -4.3830   -0.3470   -3.4530 hc        1 MOL      0.054127
     41 N4         -6.1280   -1.9740   -1.7020 n         1 MOL     -0.521565
     42 C14        -6.6230   -3.2820   -1.1670 c3        1 MOL      0.226497
     43 C15        -6.4490   -4.4570   -2.0990 c         1 MOL      0.405059
     44 O9         -7.3000   -4.8040   -2.8960 o         1 MOL     -0.531218
     45 H17        -6.2940   -1.7890   -2.6800 hn        1 MOL      0.316084
     46 H18        -7.6990   -3.1540   -1.0800 h1        1 MOL      0.012066
     47 H19        -6.2570   -3.4760   -0.1520 h1        1 MOL      0.012066
     48 N5         -5.2850   -5.0890   -2.0640 n         1 MOL     -0.350526
     49 C16        -4.0150   -4.6320   -1.5070 c3        1 MOL      0.111965
     50 C17        -3.7860   -5.2050   -0.0400 c         1 MOL      0.282542
     51 O10        -3.5580   -6.3880    0.1840 o         1 MOL     -0.470076
     52 C18        -2.8720   -4.9640   -2.5360 c3        1 MOL     -0.180089
     53 C19        -1.5910   -4.3560   -1.9740 c         1 MOL      0.660592
     54 N6         -0.6200   -4.2290   -2.7560 n         1 MOL     -0.739412
     55 O11        -1.4420   -3.9020   -0.8440 o         1 MOL     -0.517242
     56 H20        -5.1970   -6.0230   -2.4310 hn        1 MOL      0.270636
     57 H21        -4.0470   -3.5440   -1.5220 h1        1 MOL      0.038977
     58 H22        -3.2000   -4.6450   -3.5220 hc        1 MOL      0.064574
     59 H23        -2.8050   -6.0470   -2.5550 hc        1 MOL      0.064574
     60 H24        -0.6230   -4.5860   -3.7020 hn        1 MOL      0.341838
     61 H25         0.2250   -3.9950   -2.2570 hn        1 MOL      0.341838
     62 N7         -3.7240   -4.3410    1.0200 n         1 MOL     -0.012638
     63 C20        -3.6640   -4.7650    2.3800 c3        1 MOL     -0.391240
     64 C21        -2.2700   -5.2970    2.8390 c         1 MOL      0.561654
     65 O12        -2.1730   -6.0420    3.8550 o         1 MOL     -0.574186
     66 H26        -3.8800   -3.3410    0.9810 hn        1 MOL      0.216907
     67 H27        -4.3630   -5.5770    2.5460 h1        1 MOL      0.135518
     68 H28        -3.8890   -3.8950    3.0100 h1        1 MOL      0.135518
     69 N8         -1.2130   -4.9590    2.0710 n         1 MOL     -0.155579
     70 C22         0.1970   -5.0800    2.4010 c3        1 MOL     -0.101234
     71 C23         0.9220   -3.8420    2.1210 c         1 MOL      0.329494
     72 O13         0.3950   -2.8890    1.5060 o         1 MOL     -0.532273
     73 C24         0.8510   -6.1170    1.4710 c3        1 MOL      0.344332
     74 C25         0.3400   -7.4750    1.7730 c3        1 MOL     -0.555722
     75 O14         0.5180   -6.0090    0.1020 oh        1 MOL     -0.541098
     76 H29        -1.4700   -4.3310    1.3150 hn        1 MOL      0.132964
     77 H30         0.2710   -5.4140    3.4450 h1        1 MOL      0.085806
     78 H31         1.9360   -6.0600    1.5520 h1        1 MOL      0.036797
     79 H32         0.6830   -5.1330   -0.2380 ho        1 MOL      0.332037
     80 H33         0.5840   -7.7210    2.8120 hc        1 MOL      0.143559
     81 H34        -0.7390   -7.5100    1.6830 hc        1 MOL      0.143559
     82 H35         0.7580   -8.1890    1.0720 hc        1 MOL      0.143559
     83 N9          2.1820   -3.7640    2.5200 n         1 MOL     -0.057601
     84 C26         3.0660   -2.5690    2.3810 c3        1 MOL     -0.033103
     85 C27         4.1290   -2.9410    1.3210 c         1 MOL      0.320495
     86 O15         4.6610   -4.0390    1.4000 o         1 MOL     -0.502019
     87 C28         3.5650   -2.1480    3.7840 c3        1 MOL      0.215184
     88 C29         4.5370   -0.9840    3.7330 c3        1 MOL      0.061869
     89 C30         2.2940   -1.8380    4.6100 c3        1 MOL     -0.592336
     90 C31         4.0650    0.2410    2.9860 c3        1 MOL     -0.318472
     91 H36         2.6460   -4.5730    2.9060 hn        1 MOL      0.163291
     92 H37         2.4760   -1.7410    1.9910 h1        1 MOL      0.095367
     93 H38         4.0760   -3.0010    4.2430 hc        1 MOL     -0.024949
     94 H39         5.4050   -1.2380    3.1350 hc        1 MOL     -0.017879
     95 H40         4.9040   -0.8210    4.7440 hc        1 MOL     -0.017879
     96 H41         2.6710   -1.1780    5.3920 hc        1 MOL      0.152344
     97 H42         1.6050   -1.2290    4.0300 hc        1 MOL      0.152344
     98 H43         1.8440   -2.7950    4.8780 hc        1 MOL      0.152344
     99 H44         4.6900    1.1110    3.2160 hc        1 MOL      0.086595
    100 H45         3.9320    0.1610    1.9060 hc        1 MOL      0.086595
    101 H46         3.0800    0.4370    3.4170 hc        1 MOL      0.086595
    102 N10         4.2130   -2.1500    0.2570 n         1 MOL     -0.215896
    103 C32         4.9020   -2.5860   -0.9790 c3        1 MOL      0.074063
    104 C33         5.9310   -1.5110   -1.5080 c         1 MOL      0.491362
    105 O16         6.5700   -1.6920   -2.5600 o         1 MOL     -0.553959
    106 C34         3.8960   -3.0600   -2.0590 c3        1 MOL     -0.065587
    107 C35         2.7850   -3.9170   -1.6060 c         1 MOL      0.677001
    108 O17         2.9230   -5.1600   -1.7190 o         1 MOL     -0.651508
    109 O18         1.6880   -3.3790   -1.2640 o         1 MOL     -0.651508
    110 H47         3.4820   -1.4640    0.0960 hn        1 MOL      0.048422
    111 H48         5.5350   -3.4500   -0.7510 h1        1 MOL      0.079878
    112 H49         4.4590   -3.6180   -2.8040 hc        1 MOL      0.002532
    113 H50         3.4080   -2.2660   -2.6270 hc        1 MOL      0.002532
    114 N11         6.0450   -0.3880   -0.8220 n         1 MOL     -0.466081
    115 C36         7.0480    0.6600   -1.0550 c3        1 MOL      0.265911
    116 C37         6.5060    2.0940   -0.5230 c         1 MOL      0.348575
    117 O19         5.9430    2.1210    0.5570 o         1 MOL     -0.443753
    118 C38         8.3080    0.2430   -0.2860 c3        1 MOL     -0.417021
    119 C39         9.4330    1.3050   -0.2210 ca        1 MOL      0.197310
    120 C40         9.5950    2.0170    0.9620 ca        1 MOL     -0.180667
    121 C41        10.1280    1.5610   -1.3870 ca        1 MOL     -0.180667
    122 C42        10.6420    2.9690    0.9390 ca        1 MOL     -0.104787
    123 C43        11.0790    2.5560   -1.3970 ca        1 MOL     -0.104787
    124 C44        11.4290    3.2230   -0.2260 ca        1 MOL     -0.149332
    125 H51         5.3010   -0.2750   -0.1400 hn        1 MOL      0.324419
    126 H52         7.3060    0.6540   -2.1120 h1        1 MOL      0.011941
    127 H53         8.7370   -0.5780   -0.8660 hc        1 MOL      0.135394
    128 H54         7.9620   -0.0700    0.6950 hc        1 MOL      0.135394
    129 H55         8.9760    1.7810    1.8230 ha        1 MOL      0.135766
    130 H56         9.9630    1.0100   -2.2930 ha        1 MOL      0.135766
    131 H57        10.7930    3.4960    1.8680 ha        1 MOL      0.103866
    132 H58        11.5110    2.8810   -2.3330 ha        1 MOL      0.103866
    133 H59        12.1240    4.0480   -0.1910 ha        1 MOL      0.114292
    134 N12         6.7770    3.2440   -1.2810 n         1 MOL      0.063982
    135 C45         6.6460    4.6070   -0.7920 c3        1 MOL     -0.182982
    136 C46         5.2570    5.0900   -0.4800 c         1 MOL      0.690313
    137 O20         5.0260    6.2190   -0.1380 o         1 MOL     -0.588824
    138 C47         7.4620    5.4200   -1.7100 c3        1 MOL     -0.065785
    139 C48         7.3670    4.7330   -3.0460 c3        1 MOL     -0.034444
    140 C49         7.3730    3.2170   -2.6290 c3        1 MOL     -0.223545
    141 H60         7.0950    4.5250    0.1950 h1        1 MOL      0.070480
    142 H61         7.0770    6.4450   -1.7600 hc        1 MOL      0.056242
    143 H62         8.4980    5.4900   -1.3860 hc        1 MOL      0.056242
    144 H63         6.4190    4.9700   -3.5210 hc        1 MOL      0.043841
    145 H64         8.2270    4.9290   -3.6840 hc        1 MOL      0.043841
    146 H65         6.6360    2.6480   -3.2040 h1        1 MOL      0.099793
    147 H66         8.4160    2.9190   -2.6170 h1        1 MOL      0.099793
    148 N13         4.2340    4.2340   -0.4820 n         1 MOL     -0.370019
    149 C50         2.8510    4.6030   -0.0980 c3        1 MOL     -0.148418
    150 C51         2.7810    5.1380    1.3630 c         1 MOL      0.576226
    151 O21         1.8080    5.8360    1.7290 o         1 MOL     -0.555956
    152 C52         1.9820    3.2990   -0.2460 c3        1 MOL     -0.058516
    153 C53         2.4970    2.0650    0.5100 c3        1 MOL      0.121965
    154 C54         1.5630    0.8310    0.3340 c         1 MOL      0.630268
    155 O22         2.0160   -0.0570   -0.3630 o         1 MOL     -0.690949
    156 O23         0.5010    0.6860    0.8930 o         1 MOL     -0.690949
    157 H67         4.4600    3.2600   -0.5680 hn        1 MOL      0.148004
    158 H68         2.5140    5.4260   -0.7230 h1        1 MOL      0.120773
    159 H69         1.8010    3.1400   -1.3040 hc        1 MOL      0.051748
    160 H70         1.0420    3.5790    0.2270 hc        1 MOL      0.051748
    161 H71         2.5170    2.2870    1.5760 hc        1 MOL     -0.051580
    162 H72         3.5000    1.8580    0.1200 hc        1 MOL     -0.051580
    163 N14         3.7470    4.8650    2.2150 n         1 MOL     -0.249201
    164 C55         3.7750    5.4070    3.6550 c3        1 MOL     -0.177956
    165 H73         3.3530    6.4110    3.6730 h1        1 MOL      0.093364
    166 H74         3.1880    4.7550    4.3010 h1        1 MOL      0.093364
    167 H75         4.8050    5.4400    4.0110 h1        1 MOL      0.093364
    168 H76         4.6340    4.5130    1.8720 hn        1 MOL      0.204816
    169 Ca1        -0.2420   -1.4600   -0.6910 Ca        1 MOL      1.739210
    170 O24        -2.3790   -1.4850    1.0260 oh        1 MOL     -0.906021
    171 H77        -2.4040   -0.7510    1.6350 ho        1 MOL      0.434127
    172 H78        -3.2930   -1.6530    0.8140 ho        1 MOL      0.434127
    173 O25         0.2710   -0.7820   -3.2140 oh        1 MOL     -0.906021
    174 H79        -0.3520   -0.2080   -3.6610 ho        1 MOL      0.434127
    175 H80         0.8400   -1.1190   -3.9120 ho        1 MOL      0.434127
@<TRIPOS>BOND
     1    1    2 1   
     2    1    4 1   
     3    1    5 1   
     4    1    6 1   
     5    2    3 2   
     6    2    7 1   
     7    7    8 1   
     8    7   15 1   
     9    8    9 1   
    10    8   11 1   
    11    8   16 1   
    12    9   10 2   
    13    9   19 1   
    14   11   12 1   
    15   11   17 1   
    16   11   18 1   
    17   12   13 1   
    18   12   14 1   
    19   19   20 1   
    20   19   24 1   
    21   20   21 1   
    22   20   23 1   
    23   20   25 1   
    24   21   22 2   
    25   21   29 1   
    26   23   26 1   
    27   23   27 1   
    28   23   28 1   
    29   29   30 1   
    30   29   37 1   
    31   30   31 1   
    32   30   33 1   
    33   30   38 1   
    34   31   32 2   
    35   31   41 1   
    36   33   34 1   
    37   33   39 1   
    38   33   40 1   
    39   34   35 1   
    40   34   36 1   
    41   41   42 1   
    42   41   45 1   
    43   42   43 1   
    44   42   46 1   
    45   42   47 1   
    46   43   44 2   
    47   43   48 1   
    48   48   49 1   
    49   48   56 1   
    50   49   50 1   
    51   49   52 1   
    52   49   57 1   
    53   50   51 2   
    54   50   62 1   
    55   52   53 1   
    56   52   58 1   
    57   52   59 1   
    58   53   54 1   
    59   53   55 2   
    60   54   60 1   
    61   54   61 1   
    62   62   63 1   
    63   62   66 1   
    64   63   64 1   
    65   63   67 1   
    66   63   68 1   
    67   64   65 2   
    68   64   69 1   
    69   69   70 1   
    70   69   76 1   
    71   70   71 1   
    72   70   73 1   
    73   70   77 1   
    74   71   72 2   
    75   71   83 1   
    76   73   74 1   
    77   73   75 1   
    78   73   78 1   
    79   74   80 1   
    80   74   81 1   
    81   74   82 1   
    82   75   79 1   
    83   83   84 1   
    84   83   91 1   
    85   84   85 1   
    86   84   87 1   
    87   84   92 1   
    88   85   86 2   
    89   85  102 1   
    90   87   88 1   
    91   87   89 1   
    92   87   93 1   
    93   88   90 1   
    94   88   94 1   
    95   88   95 1   
    96   89   96 1   
    97   89   97 1   
    98   89   98 1   
    99   90   99 1   
   100   90  100 1   
   101   90  101 1   
   102  102  103 1   
   103  102  110 1   
   104  103  104 1   
   105  103  106 1   
   106  103  111 1   
   107  104  105 2   
   108  104  114 1   
   109  106  107 1   
   110  106  112 1   
   111  106  113 1   
   112  107  108 1   
   113  107  109 1   
   114  114  115 1   
   115  114  125 1   
   116  115  116 1   
   117  115  118 1   
   118  115  126 1   
   119  116  117 2   
   120  116  134 1   
   121  118  119 1   
   122  118  127 1   
   123  118  128 1   
   124  119  120 ar  
   125  119  121 ar  
   126  120  122 ar  
   127  120  129 1   
   128  121  123 ar  
   129  121  130 1   
   130  122  124 ar  
   131  122  131 1   
   132  123  124 ar  
   133  123  132 1   
   134  124  133 1   
   135  134  135 1   
   136  134  140 1   
   137  135  136 1   
   138  135  138 1   
   139  135  141 1   
   140  136  137 2   
   141  136  148 1   
   142  138  139 1   
   143  138  142 1   
   144  138  143 1   
   145  139  140 1   
   146  139  144 1   
   147  139  145 1   
   148  140  146 1   
   149  140  147 1   
   150  148  149 1   
   151  148  157 1   
   152  149  150 1   
   153  149  152 1   
   154  149  158 1   
   155  150  151 2   
   156  150  163 1   
   157  152  153 1   
   158  152  159 1   
   159  152  160 1   
   160  153  154 1   
   161  153  161 1   
   162  153  162 1   
   163  154  155 1   
   164  154  156 1   
   165  163  164 1   
   166  163  168 1   
   167  164  165 1   
   168  164  166 1   
   169  164  167 1   
   170  170  171 1   
   171  170  172 1   
   172  173  174 1   
   173  173  175 1   
@<TRIPOS>SUBSTRUCTURE
     1 MOL         1 TEMP              0 ****  ****    0 ROOT
