@<TRIPOS>MOLECULE
MOL
  186   183     1     0     0
SMALL
resp


@<TRIPOS>ATOM
      1 C1          4.2880    3.9620   -3.5170 c3        1 MOL     -0.571825
      2 C2          5.0330    3.1930   -2.4120 c         1 MOL      0.778246
      3 O1          4.5560    3.0330   -1.3070 o         1 MOL     -0.585020
      4 H1          4.8930    3.9710   -4.4230 hc        1 MOL      0.144995
      5 H2          3.3360    3.4730   -3.7220 hc        1 MOL      0.144995
      6 H3          4.1080    4.9860   -3.1910 hc        1 MOL      0.144995
      7 N1          6.2440    2.7630   -2.7170 n         1 MOL     -0.646420
      8 C3          7.0280    1.7960   -1.9240 c3        1 MOL      0.282975
      9 C4          6.2660    0.4990   -1.5800 c         1 MOL      0.402328
     10 O2          5.8610    0.2240   -0.4830 o         1 MOL     -0.556771
     11 C5          7.8890    2.4700   -0.7680 c3        1 MOL     -0.033776
     12 C6          7.2750    3.5000    0.1760 c         1 MOL      0.669722
     13 O3          6.3770    3.0670    0.9390 o         1 MOL     -0.709207
     14 O4          7.6280    4.7170    0.1840 o         1 MOL     -0.709207
     15 H4          6.5420    2.9770   -3.6600 hn        1 MOL      0.305077
     16 H5          7.8640    1.4150   -2.5100 h1        1 MOL      0.007404
     17 H6          8.7040    2.9890   -1.2710 hc        1 MOL     -0.016888
     18 H7          8.3420    1.6310   -0.2410 hc        1 MOL     -0.016888
     19 N2          5.9530   -0.2830   -2.6510 n         1 MOL     -0.526850
     20 C7          5.1140   -1.5090   -2.6610 c3        1 MOL      0.405363
     21 C8          5.7180   -2.7040   -1.8730 c         1 MOL      0.215008
     22 O5          6.0690   -3.7360   -2.4740 o         1 MOL     -0.494087
     23 C9          3.5610   -1.3090   -2.5020 c3        1 MOL      0.117519
     24 C10         2.7920   -2.6540   -2.5950 c3        1 MOL      0.118787
     25 C11         3.0800   -0.2500   -3.4800 c3        1 MOL     -0.310835
     26 C12         2.9060   -3.4050   -3.9220 c3        1 MOL     -0.064241
     27 H8          6.2580    0.1210   -3.5290 hn        1 MOL      0.254275
     28 H9          5.2420   -1.8760   -3.6720 h1        1 MOL     -0.027489
     29 H10         3.3660   -0.8880   -1.5170 hc        1 MOL     -0.147811
     30 H11         1.7270   -2.6950   -2.3310 hc        1 MOL      0.002456
     31 H12         3.2280   -3.2570   -1.8060 hc        1 MOL      0.002456
     32 H13         3.6060    0.7050   -3.4240 hc        1 MOL      0.065034
     33 H14         3.2490   -0.6740   -4.4730 hc        1 MOL      0.065034
     34 H15         2.0270   -0.0210   -3.3480 hc        1 MOL      0.065034
     35 H16         3.9350   -3.7590   -4.0060 hc        1 MOL     -0.017099
     36 H17         2.2530   -4.2680   -3.9410 hc        1 MOL     -0.017099
     37 H18         2.6370   -2.7720   -4.7710 hc        1 MOL     -0.017099
     38 N3          5.8590   -2.6430   -0.4900 n         1 MOL     -0.079635
     39 C13         6.5880   -3.7120    0.2360 c3        1 MOL     -0.024365
     40 C14         5.8010   -5.0040    0.4780 c         1 MOL      0.687085
     41 O6          6.4250   -6.0240    0.3100 o         1 MOL     -0.618780
     42 C15         7.3580   -3.2140    1.4380 c3        1 MOL     -0.243182
     43 C16         8.1970   -1.9920    1.2610 c         1 MOL      0.811143
     44 O7          9.0980   -2.0470    0.3440 o         1 MOL     -0.743947
     45 O8          8.1400   -1.0950    2.1080 o         1 MOL     -0.743947
     46 H19         5.7470   -1.7670   -0.0020 hn        1 MOL      0.277813
     47 H20         7.3140   -4.1220   -0.4720 h1        1 MOL      0.057528
     48 H21         8.0840   -3.9390    1.8010 hc        1 MOL      0.054595
     49 H22         6.6810   -3.1580    2.2940 hc        1 MOL      0.054595
     50 N4          4.5370   -5.0510    0.8000 n         1 MOL     -0.622222
     51 C17         3.5560   -3.9970    1.1750 c3        1 MOL      0.192302
     52 C18         3.8480   -3.6470    2.6640 c         1 MOL      0.425426
     53 O9          4.7470   -4.2320    3.3230 o         1 MOL     -0.513024
     54 H23         4.1680   -5.9650    1.0150 hn        1 MOL      0.296975
     55 H24         2.5690   -4.3990    0.9670 h1        1 MOL      0.028562
     56 H25         3.7030   -3.1230    0.5450 h1        1 MOL      0.028562
     57 N5          3.1220   -2.6740    3.2890 n         1 MOL     -0.425084
     58 C19         1.9540   -1.9950    2.7310 c3        1 MOL      0.167328
     59 C20         2.1110   -1.3020    1.3710 c         1 MOL      0.023488
     60 O10         3.2170   -0.8610    1.0640 o         1 MOL     -0.495950
     61 C21         1.6170   -0.9710    3.7760 c3        1 MOL     -0.244420
     62 C22         2.6660    0.1620    3.8790 c         1 MOL      0.801795
     63 O11         2.6830    1.1070    3.0360 o         1 MOL     -0.710684
     64 O12         3.4280    0.1240    4.8560 o         1 MOL     -0.710684
     65 H26         3.3560   -2.5390    4.2630 hn        1 MOL      0.297845
     66 H27         1.0850   -2.6520    2.6590 h1        1 MOL     -0.015767
     67 H28         1.5210   -1.4440    4.7640 hc        1 MOL      0.065767
     68 H29         0.6430   -0.5280    3.5830 hc        1 MOL      0.065767
     69 N6          1.0760   -1.0630    0.5550 n         1 MOL     -0.026701
     70 C23        -0.2590   -1.3570    0.8630 c3        1 MOL      0.065830
     71 C24        -0.7830   -2.7270    0.3100 c         1 MOL      0.556126
     72 O13        -0.0860   -3.3450   -0.4780 o         1 MOL     -0.508583
     73 H30         1.3210   -0.3810   -0.1410 hn        1 MOL      0.184860
     74 H31        -0.8450   -0.6830    0.2320 h1        1 MOL      0.029574
     75 H32        -0.6040   -1.2050    1.8870 h1        1 MOL      0.029574
     76 N7         -2.0050   -3.2000    0.6810 n         1 MOL     -0.480206
     77 C25        -2.5980   -4.3590    0.0530 c3        1 MOL      0.013574
     78 C26        -3.3480   -4.1070   -1.2470 c         1 MOL      0.380729
     79 O14        -3.8340   -5.0820   -1.8750 o         1 MOL     -0.520970
     80 C27        -3.4470   -5.1490    1.1000 c3        1 MOL      0.200827
     81 C28        -4.5580   -4.4670    1.9920 c3        1 MOL     -0.470189
     82 C29        -5.6530   -3.9510    1.1390 c         1 MOL      0.543285
     83 N8         -6.6350   -4.7050    0.7730 n         1 MOL     -0.642740
     84 O15        -5.4780   -2.8740    0.6510 o         1 MOL     -0.463789
     85 H33        -2.5850   -2.5810    1.2300 hn        1 MOL      0.268597
     86 H34        -1.7960   -5.0340   -0.2480 h1        1 MOL      0.122369
     87 H35        -2.7610   -5.6390    1.7810 hc        1 MOL     -0.029421
     88 H36        -3.9560   -5.9240    0.5270 hc        1 MOL     -0.029421
     89 H37        -4.1480   -3.7160    2.6650 hc        1 MOL      0.143309
     90 H38        -5.0360   -5.3060    2.5130 hc        1 MOL      0.143309
     91 H39        -6.7330   -5.6080    1.2110 hn        1 MOL      0.335554
     92 H40        -7.1960   -4.4110   -0.0180 hn        1 MOL      0.335554
     93 N9         -3.3490   -2.8410   -1.7860 n         1 MOL     -0.219446
     94 C30        -3.7020   -2.3780   -3.1630 c3        1 MOL     -0.010611
     95 C31        -4.9740   -1.5530   -3.1710 c         1 MOL      0.385902
     96 O16        -5.5080   -1.2640   -4.2250 o         1 MOL     -0.556173
     97 C32        -2.5250   -1.6730   -3.8450 c3        1 MOL      0.328040
     98 C33        -1.4420   -2.7480   -4.1470 c3        1 MOL     -0.270126
     99 C34        -2.0120   -0.4520   -3.1220 c3        1 MOL     -0.270126
    100 H41        -2.8690   -2.1990   -1.1750 hn        1 MOL      0.166541
    101 H42        -3.8880   -3.3000   -3.7000 h1        1 MOL      0.096380
    102 H43        -2.9410   -1.4180   -4.8200 hc        1 MOL     -0.033720
    103 H44        -0.6620   -2.3630   -4.8020 hc        1 MOL      0.053916
    104 H45        -0.9380   -3.0880   -3.2310 hc        1 MOL      0.053916
    105 H46        -2.0810   -3.4870   -4.6140 hc        1 MOL      0.053916
    106 H47        -1.2910    0.1000   -3.7290 hc        1 MOL      0.053916
    107 H48        -2.8820    0.1560   -2.8850 hc        1 MOL      0.053916
    108 H49        -1.6420   -0.7840   -2.1520 hc        1 MOL      0.053916
    109 N10        -5.5830   -1.2270   -2.0320 n         1 MOL     -0.242916
    110 C35        -6.8690   -0.5170   -1.9260 c3        1 MOL      0.070794
    111 C36        -6.8220    0.8420   -1.1950 c         1 MOL      0.552175
    112 O17        -7.8800    1.4200   -1.1240 o         1 MOL     -0.534553
    113 C37        -7.8520   -1.4070   -1.1260 c3        1 MOL     -0.527685
    114 C38        -8.2040   -2.7440   -1.7800 c         1 MOL      0.766508
    115 N11        -8.4220   -2.8440   -3.0770 n         1 MOL     -0.763268
    116 O18        -8.4240   -3.7360   -1.0630 o         1 MOL     -0.600563
    117 H50        -5.1350   -1.4200   -1.1490 hn        1 MOL      0.230377
    118 H51        -7.3000   -0.2400   -2.8870 h1        1 MOL      0.070370
    119 H52        -8.7420   -0.8160   -0.9450 hc        1 MOL      0.153744
    120 H53        -7.3530   -1.5100   -0.1550 hc        1 MOL      0.153744
    121 H54        -8.1020   -2.1140   -3.6940 hn        1 MOL      0.360264
    122 H55        -8.9770   -3.5740   -3.5000 hn        1 MOL      0.360264
    123 N12        -5.6900    1.3390   -0.6740 n         1 MOL     -0.490845
    124 C39        -5.6760    2.6490    0.0430 c3        1 MOL      0.127687
    125 C40        -4.2420    3.1160    0.3720 c         1 MOL      0.497413
    126 O19        -3.3080    2.3640    0.0860 o         1 MOL     -0.465953
    127 C41        -6.5610    2.6020    1.3420 c3        1 MOL      0.061513
    128 C42        -6.7400    1.2370    2.0810 ca        1 MOL     -0.110964
    129 C43        -7.9680    0.4950    1.9360 ca        1 MOL     -0.014285
    130 C44        -5.6940    0.6330    2.8040 ca        1 MOL     -0.014285
    131 C45        -8.1190   -0.7800    2.5780 ca        1 MOL     -0.396031
    132 C46        -5.8290   -0.6240    3.4080 ca        1 MOL     -0.396031
    133 C47        -6.9850   -1.4050    3.2350 ca        1 MOL      0.481735
    134 O20        -7.2180   -2.6460    3.7770 oh        1 MOL     -0.496616
    135 H56        -4.8760    0.7440   -0.6250 hn        1 MOL      0.252979
    136 H57        -6.1080    3.4230   -0.6070 h1        1 MOL      0.036630
    137 H58        -7.5620    2.8990    1.0530 hc        1 MOL      0.001278
    138 H59        -6.2710    3.3620    2.0730 hc        1 MOL      0.001278
    139 H60        -8.8210    0.9630    1.4710 ha        1 MOL      0.110309
    140 H61        -4.8280    1.2230    3.0610 ha        1 MOL      0.110309
    141 H62        -9.0230   -1.3740    2.5200 ha        1 MOL      0.169647
    142 H63        -5.0390   -1.1500    3.9130 ha        1 MOL      0.169647
    143 H64        -8.1210   -2.8820    3.5540 ho        1 MOL      0.316873
    144 N13        -4.1240    4.3660    0.7900 n         1 MOL     -0.442148
    145 C48        -2.8720    5.1490    1.2090 c3        1 MOL      0.163753
    146 C49        -1.7420    5.3130    0.1450 c         1 MOL      0.260758
    147 O21        -1.0660    6.3490    0.1510 o         1 MOL     -0.509617
    148 C50        -2.3220    4.7490    2.4790 c3        1 MOL      0.160656
    149 C51        -3.3300    4.6940    3.6610 c3        1 MOL     -0.297689
    150 C52        -2.6580    4.1160    4.9020 c         1 MOL      0.653716
    151 O22        -1.7630    4.7250    5.4780 o         1 MOL     -0.692634
    152 O23        -3.0460    2.9700    5.3150 o         1 MOL     -0.692634
    153 H65        -4.9740    4.9010    0.8520 hn        1 MOL      0.251299
    154 H66        -3.1900    6.1840    1.3060 h1        1 MOL      0.005076
    155 H67        -1.4800    5.3800    2.7450 hc        1 MOL      0.016890
    156 H68        -1.9190    3.7690    2.2020 hc        1 MOL      0.016890
    157 H69        -4.0780    4.0050    3.2710 hc        1 MOL      0.034457
    158 H70        -3.7350    5.6800    3.8840 hc        1 MOL      0.034457
    159 N14        -1.6750    4.3890   -0.7480 n         1 MOL     -0.114393
    160 C53        -0.5980    4.4010   -1.7790 c3        1 MOL     -0.253438
    161 C54        -1.0550    5.3630   -2.9590 c         1 MOL      0.494820
    162 O24        -0.3080    5.6940   -3.8170 o         1 MOL     -0.522468
    163 C55        -0.2760    2.9620   -2.2480 c3        1 MOL      0.185640
    164 C56        -0.0520    1.9210   -1.1480 c3        1 MOL      0.318232
    165 C57         1.2170    2.3390   -0.3790 c         1 MOL      0.392523
    166 O25         1.2930    3.3820    0.2800 o         1 MOL     -0.547204
    167 O26         2.1780    1.5470   -0.4650 o         1 MOL     -0.547204
    168 H71        -2.1780    3.5390   -0.5370 hn        1 MOL      0.144015
    169 H72         0.3240    4.8040   -1.3600 h1        1 MOL      0.196324
    170 H73         0.5740    2.8570   -2.9240 hc        1 MOL     -0.049717
    171 H74        -1.1370    2.6160   -2.8140 hc        1 MOL     -0.049717
    172 H75         0.1810    0.9790   -1.6350 hc        1 MOL     -0.128482
    173 H76        -0.8900    1.8510   -0.4490 hc        1 MOL     -0.128482
    174 N15        -2.3800    5.6760   -2.9880 n         1 MOL     -0.163637
    175 C58        -2.9480    6.5810   -3.9210 c3        1 MOL     -0.268628
    176 H77        -2.1510    7.0690   -4.4830 h1        1 MOL      0.094066
    177 H78        -3.5950    6.0370   -4.6090 h1        1 MOL      0.094066
    178 H79        -3.5300    7.3340   -3.3900 h1        1 MOL      0.094066
    179 H80        -2.9940    5.3090   -2.2760 hn        1 MOL      0.145302
    180 Ca1         4.2750    1.7250    1.0490 Ca        1 MOL      1.818303
    181 O27         3.3500    3.8510    2.3050 oh        1 MOL     -1.011335
    182 H81         2.8760    4.5990    1.9600 ho        1 MOL      0.466182
    183 H82         3.2850    3.9370    3.2610 ho        1 MOL      0.466182
    184 O28         5.9770    0.3230    2.7310 oh        1 MOL     -1.011335
    185 H83         6.7140   -0.2020    2.4250 ho        1 MOL      0.466182
    186 H84         5.7920    0.0040    3.6130 ho        1 MOL      0.466182
@<TRIPOS>BOND
     1    1    2 1   
     2    1    4 1   
     3    1    5 1   
     4    1    6 1   
     5    2    3 2   
     6    2    7 1   
     7    7    8 1   
     8    7   15 1   
     9    8    9 1   
    10    8   11 1   
    11    8   16 1   
    12    9   10 2   
    13    9   19 1   
    14   11   12 1   
    15   11   17 1   
    16   11   18 1   
    17   12   13 1   
    18   12   14 1   
    19   19   20 1   
    20   19   27 1   
    21   20   21 1   
    22   20   23 1   
    23   20   28 1   
    24   21   22 2   
    25   21   38 1   
    26   23   24 1   
    27   23   25 1   
    28   23   29 1   
    29   24   26 1   
    30   24   30 1   
    31   24   31 1   
    32   25   32 1   
    33   25   33 1   
    34   25   34 1   
    35   26   35 1   
    36   26   36 1   
    37   26   37 1   
    38   38   39 1   
    39   38   46 1   
    40   39   40 1   
    41   39   42 1   
    42   39   47 1   
    43   40   41 2   
    44   40   50 1   
    45   42   43 1   
    46   42   48 1   
    47   42   49 1   
    48   43   44 1   
    49   43   45 1   
    50   50   51 1   
    51   50   54 1   
    52   51   52 1   
    53   51   55 1   
    54   51   56 1   
    55   52   53 2   
    56   52   57 1   
    57   57   58 1   
    58   57   65 1   
    59   58   59 1   
    60   58   61 1   
    61   58   66 1   
    62   59   60 2   
    63   59   69 1   
    64   61   62 1   
    65   61   67 1   
    66   61   68 1   
    67   62   63 1   
    68   62   64 1   
    69   69   70 1   
    70   69   73 1   
    71   70   71 1   
    72   70   74 1   
    73   70   75 1   
    74   71   72 2   
    75   71   76 1   
    76   76   77 1   
    77   76   85 1   
    78   77   78 1   
    79   77   80 1   
    80   77   86 1   
    81   78   79 2   
    82   78   93 1   
    83   80   81 1   
    84   80   87 1   
    85   80   88 1   
    86   81   82 1   
    87   81   89 1   
    88   81   90 1   
    89   82   83 1   
    90   82   84 2   
    91   83   91 1   
    92   83   92 1   
    93   93   94 1   
    94   93  100 1   
    95   94   95 1   
    96   94   97 1   
    97   94  101 1   
    98   95   96 2   
    99   95  109 1   
   100   97   98 1   
   101   97   99 1   
   102   97  102 1   
   103   98  103 1   
   104   98  104 1   
   105   98  105 1   
   106   99  106 1   
   107   99  107 1   
   108   99  108 1   
   109  109  110 1   
   110  109  117 1   
   111  110  111 1   
   112  110  113 1   
   113  110  118 1   
   114  111  112 2   
   115  111  123 1   
   116  113  114 1   
   117  113  119 1   
   118  113  120 1   
   119  114  115 1   
   120  114  116 2   
   121  115  121 1   
   122  115  122 1   
   123  123  124 1   
   124  123  135 1   
   125  124  125 1   
   126  124  127 1   
   127  124  136 1   
   128  125  126 2   
   129  125  144 1   
   130  127  128 1   
   131  127  137 1   
   132  127  138 1   
   133  128  129 ar  
   134  128  130 ar  
   135  129  131 ar  
   136  129  139 1   
   137  130  132 ar  
   138  130  140 1   
   139  131  133 ar  
   140  131  141 1   
   141  132  133 ar  
   142  132  142 1   
   143  133  134 1   
   144  134  143 1   
   145  144  145 1   
   146  144  153 1   
   147  145  146 1   
   148  145  148 1   
   149  145  154 1   
   150  146  147 2   
   151  146  159 1   
   152  148  149 1   
   153  148  155 1   
   154  148  156 1   
   155  149  150 1   
   156  149  157 1   
   157  149  158 1   
   158  150  151 1   
   159  150  152 1   
   160  159  160 1   
   161  159  168 1   
   162  160  161 1   
   163  160  163 1   
   164  160  169 1   
   165  161  162 2   
   166  161  174 1   
   167  163  164 1   
   168  163  170 1   
   169  163  171 1   
   170  164  165 1   
   171  164  172 1   
   172  164  173 1   
   173  165  166 1   
   174  165  167 1   
   175  174  175 1   
   176  174  179 1   
   177  175  176 1   
   178  175  177 1   
   179  175  178 1   
   180  181  182 1   
   181  181  183 1   
   182  184  185 1   
   183  184  186 1   
@<TRIPOS>SUBSTRUCTURE
     1 MOL         1 TEMP              0 ****  ****    0 ROOT
