@<TRIPOS>MOLECULE
MOL
  184   179     1     0     0
SMALL
resp


@<TRIPOS>ATOM
      1 C1          3.2760   -3.6810    3.8380 c3        1 MOL     -0.158620
      2 C2          4.6330   -2.9290    3.6350 c         1 MOL      0.595707
      3 O1          4.9000   -1.9130    4.2570 o         1 MOL     -0.561636
      4 H1          3.1570   -3.9370    4.8910 hc        1 MOL      0.017653
      5 H2          2.4530   -3.0380    3.5260 hc        1 MOL      0.017653
      6 H3          3.2730   -4.5930    3.2400 hc        1 MOL      0.017653
      7 N1          5.5220   -3.5690    2.9040 n         1 MOL     -0.485753
      8 C3          6.8550   -3.0890    2.4610 c3        1 MOL      0.282836
      9 C4          6.8190   -2.6060    1.0110 c         1 MOL      0.514762
     10 O2          6.1610   -3.1870    0.1100 o         1 MOL     -0.575898
     11 C5          7.9560   -4.0910    2.6740 c3        1 MOL     -0.116849
     12 C6          9.3150   -3.5020    2.1570 c         1 MOL      0.690501
     13 O3          9.7310   -2.4250    2.5990 o         1 MOL     -0.711990
     14 O4          9.9390   -4.1490    1.2380 o         1 MOL     -0.711990
     15 H4          5.1790   -4.4370    2.5080 hn        1 MOL      0.228656
     16 H5          7.1950   -2.1860    2.9660 h1        1 MOL     -0.001246
     17 H6          7.6670   -4.9550    2.0810 hc        1 MOL     -0.031615
     18 H7          8.0540   -4.4000    3.7150 hc        1 MOL     -0.031615
     19 N2          7.5220   -1.5340    0.7050 n         1 MOL     -0.397014
     20 C7          7.6820   -0.9670   -0.5790 c3        1 MOL      0.138115
     21 C8          6.7870    0.3360   -0.7900 c         1 MOL      0.766640
     22 O5          6.6540    1.0830    0.1900 o         1 MOL     -0.598652
     23 C9          9.1830   -0.5930   -0.7970 c3        1 MOL     -0.372559
     24 H8          8.0690   -1.0470    1.4030 hn        1 MOL      0.297660
     25 H9          7.4700   -1.6120   -1.4340 h1        1 MOL      0.060638
     26 H10         9.3770   -0.5360   -1.8600 hc        1 MOL      0.097163
     27 H11         9.4750    0.3560   -0.3460 hc        1 MOL      0.097163
     28 H12         9.8200   -1.4290   -0.5090 hc        1 MOL      0.097163
     29 N3          6.2230    0.4950   -1.9860 n         1 MOL     -0.895276
     30 C10         5.1940    1.5270   -2.3110 c3        1 MOL      0.483244
     31 C11         5.6910    2.7890   -3.0030 c         1 MOL      0.436954
     32 O6          6.6500    2.7730   -3.7020 o         1 MOL     -0.499487
     33 C12         4.0890    0.7980   -3.1050 c3        1 MOL     -0.180810
     34 C13         3.5780   -0.4470   -2.4670 c         1 MOL      0.758482
     35 O7          2.9270   -1.2430   -3.1880 o         1 MOL     -0.767722
     36 O8          3.7870   -0.6690   -1.2470 o         1 MOL     -0.767722
     37 H13         6.4700   -0.2300   -2.6510 hn        1 MOL      0.350036
     38 H14         4.8380    1.8880   -1.3510 h1        1 MOL      0.032360
     39 H15         4.3560    0.5050   -4.1270 hc        1 MOL      0.023063
     40 H16         3.2360    1.4540   -3.2690 hc        1 MOL      0.023063
     41 N4          4.8570    3.8480   -2.8900 n         1 MOL     -0.418980
     42 C14         4.8610    5.0680   -3.7410 c3        1 MOL      0.002883
     43 C15         3.6270    5.9540   -3.7030 c         1 MOL      0.509477
     44 O9          3.5260    6.8590   -4.5390 o         1 MOL     -0.544205
     45 H17         4.0480    3.6540   -2.3050 hn        1 MOL      0.142767
     46 H18         5.0430    4.7760   -4.7790 h1        1 MOL      0.085299
     47 H19         5.7270    5.6830   -3.5360 h1        1 MOL      0.085299
     48 N5          2.6420    5.6760   -2.8640 n         1 MOL     -0.516749
     49 C16         1.2460    6.1170   -3.0510 c3        1 MOL      0.226954
     50 C17         0.7990    6.2200   -1.5810 c         1 MOL      0.257239
     51 O10         0.6230    5.2010   -0.8860 o         1 MOL     -0.428300
     52 C18         0.3420    5.0960   -3.8260 c3        1 MOL     -0.319206
     53 C19        -1.1210    5.6590   -3.8000 c         1 MOL      0.595797
     54 N6         -1.9560    5.1600   -2.9410 n         1 MOL     -0.696993
     55 O11        -1.5190    6.5020   -4.5790 o         1 MOL     -0.567002
     56 H20         2.7210    4.9470   -2.1770 hn        1 MOL      0.381843
     57 H21         1.2030    7.0960   -3.5330 h1        1 MOL      0.058429
     58 H22         0.4350    4.1450   -3.2980 hc        1 MOL      0.129329
     59 H23         0.7880    5.0690   -4.8250 hc        1 MOL      0.129329
     60 H24        -1.6400    4.4630   -2.2860 hn        1 MOL      0.363271
     61 H25        -2.9090    5.4790   -2.9960 hn        1 MOL      0.363271
     62 N7          0.6260    7.4560   -1.0610 n         1 MOL     -0.262337
     63 C20         0.3760    7.6900    0.4070 c3        1 MOL     -0.310868
     64 C21        -0.7680    6.9190    1.0160 c         1 MOL      0.646941
     65 O12        -1.7580    6.5670    0.3300 o         1 MOL     -0.519859
     66 H26         0.6560    8.2280   -1.7130 hn        1 MOL      0.285854
     67 H27         0.1460    8.7440    0.5340 h1        1 MOL      0.138337
     68 H28         1.2690    7.4100    0.9650 h1        1 MOL      0.138337
     69 N8         -0.7740    6.5520    2.2960 n         1 MOL     -0.415617
     70 C22        -1.9920    6.1220    3.0270 c3        1 MOL     -0.261706
     71 C23        -2.1420    4.6150    3.1980 c         1 MOL      0.627106
     72 O13        -3.2350    4.2190    3.6510 o         1 MOL     -0.602080
     73 C24        -2.0670    6.8220    4.3650 c3        1 MOL      0.476178
     74 C25        -1.2360    6.1990    5.4450 c3        1 MOL     -0.209740
     75 O14        -1.6400    8.1830    4.2380 oh        1 MOL     -0.634240
     76 H29         0.1050    6.6890    2.7830 hn        1 MOL      0.257255
     77 H30        -2.8530    6.4260    2.4380 h1        1 MOL      0.155483
     78 H31        -3.0910    6.7980    4.7450 h1        1 MOL      0.026448
     79 H32        -0.7100    8.1870    4.0220 ho        1 MOL      0.351131
     80 H33        -1.7330    5.2940    5.8010 hc        1 MOL      0.044772
     81 H34        -0.2540    5.8850    5.0860 hc        1 MOL      0.044772
     82 H35        -1.0770    6.8570    6.2960 hc        1 MOL      0.044772
     83 N9         -1.1820    3.7600    2.9100 n         1 MOL     -0.382507
     84 C26        -1.0900    2.3540    3.3530 c3        1 MOL      0.056346
     85 C27        -0.9810    1.4630    2.0910 c         1 MOL      0.454830
     86 O15        -0.3960    1.8300    1.0890 o         1 MOL     -0.508924
     87 C28         0.1060    2.1250    4.2480 c3        1 MOL      0.065038
     88 C29        -0.0330    2.7450    5.6160 c3        1 MOL     -0.274805
     89 C30         0.5480    0.6620    4.3800 c3        1 MOL     -0.032710
     90 C31        -1.3620    2.5200    6.2980 c3        1 MOL     -0.091220
     91 H36        -0.3650    4.1680    2.4920 hn        1 MOL      0.252561
     92 H37        -1.9760    1.9820    3.8510 h1        1 MOL      0.053256
     93 H38         0.9260    2.6580    3.7720 hc        1 MOL      0.026617
     94 H39         0.0900    3.8270    5.5060 hc        1 MOL      0.082237
     95 H40         0.7620    2.4840    6.3200 hc        1 MOL      0.082237
     96 H41         0.8700    0.2310    3.4320 hc        1 MOL      0.038404
     97 H42         1.4310    0.6080    5.0140 hc        1 MOL      0.038404
     98 H43        -0.2480    0.0350    4.7730 hc        1 MOL      0.038404
     99 H44        -1.6720    1.4800    6.2570 hc        1 MOL      0.034619
    100 H45        -1.2960    2.7590    7.3600 hc        1 MOL      0.034619
    101 H46        -2.1620    3.1720    5.9440 hc        1 MOL      0.034619
    102 N10        -1.6700    0.3270    2.0130 n         1 MOL     -0.352549
    103 C32        -1.5990   -0.6370    0.8770 c3        1 MOL      0.217216
    104 C33        -2.9890   -1.1050    0.4200 c         1 MOL      0.531405
    105 O16        -3.1700   -2.0590   -0.3080 o         1 MOL     -0.507931
    106 C34        -0.5950   -1.7790    1.2160 c3        1 MOL     -0.274333
    107 C35         0.6630   -1.8910    0.2950 c         1 MOL      0.774438
    108 O17         1.8310   -2.2320    0.7100 o         1 MOL     -0.723497
    109 O18         0.5080   -1.6800   -0.8920 o         1 MOL     -0.723497
    110 H47        -2.2030    0.0470    2.8190 hn        1 MOL      0.224860
    111 H48        -1.1970   -0.1140    0.0170 h1        1 MOL      0.073250
    112 H49        -1.0740   -2.7640    1.2140 hc        1 MOL      0.037886
    113 H50        -0.2540   -1.6060    2.2320 hc        1 MOL      0.037886
    114 N11        -3.9450   -0.2390    0.6470 n         1 MOL     -0.517251
    115 C36        -5.2970   -0.1660   -0.0820 c3        1 MOL      0.263926
    116 C37        -6.1130   -1.4810   -0.1640 c         1 MOL      0.253933
    117 O19        -6.2410   -2.1440    0.8760 o         1 MOL     -0.454678
    118 C38        -6.2280    0.8790    0.5790 c3        1 MOL     -0.197242
    119 C39        -7.3680    1.3080   -0.2790 ca        1 MOL      0.062128
    120 C40        -7.3900    2.5510   -0.9770 ca        1 MOL     -0.117168
    121 C41        -8.5650    0.5410   -0.3330 ca        1 MOL     -0.117168
    122 C42        -8.5290    3.0130   -1.7130 ca        1 MOL     -0.155884
    123 C43        -9.6490    0.9120   -1.1330 ca        1 MOL     -0.155884
    124 C44        -9.6650    2.1940   -1.7320 ca        1 MOL     -0.098274
    125 H51        -3.7340    0.5620    1.2160 hn        1 MOL      0.221830
    126 H52        -5.1000    0.1550   -1.1010 h1        1 MOL      0.014222
    127 H53        -5.6920    1.7780    0.8840 hc        1 MOL      0.099571
    128 H54        -6.5940    0.4670    1.5120 hc        1 MOL      0.099571
    129 H55        -6.5410    3.2130   -0.8970 ha        1 MOL      0.106109
    130 H56        -8.6510   -0.4060    0.1650 ha        1 MOL      0.106109
    131 H57        -8.6360    3.9540   -2.2370 ha        1 MOL      0.125015
    132 H58       -10.5280    0.2950   -1.3110 ha        1 MOL      0.125015
    133 H59       -10.5200    2.5350   -2.3130 ha        1 MOL      0.098919
    134 N12        -6.7200   -1.9620   -1.3350 n         1 MOL      0.019048
    135 C45        -7.6650   -3.0950   -1.4320 c3        1 MOL     -0.049687
    136 C46        -7.2850   -4.4730   -0.8220 c         1 MOL      0.284766
    137 O20        -8.1060   -5.3120   -0.4930 o         1 MOL     -0.513860
    138 C47        -7.9560   -3.1760   -2.9290 c3        1 MOL      0.092327
    139 C48        -7.8360   -1.7150   -3.4380 c3        1 MOL     -0.151157
    140 C49        -6.6440   -1.2190   -2.5670 c3        1 MOL      0.002439
    141 H60        -8.6180   -2.7450   -1.0350 h1        1 MOL      0.064417
    142 H61        -7.1660   -3.7200   -3.4460 hc        1 MOL      0.017204
    143 H62        -8.8810   -3.6740   -3.2010 hc        1 MOL      0.017204
    144 H63        -7.6520   -1.6770   -4.5080 hc        1 MOL      0.044895
    145 H64        -8.7580   -1.1710   -3.2140 hc        1 MOL      0.044895
    146 H65        -5.7110   -1.5050   -3.0570 h1        1 MOL      0.044112
    147 H66        -6.5200   -0.1320   -2.5270 h1        1 MOL      0.044112
    148 N13        -6.0380   -4.7970   -0.7920 n         1 MOL     -0.097125
    149 C50        -5.4400   -5.9630   -0.0260 c3        1 MOL     -0.159162
    150 C51        -5.0600   -5.7660    1.4060 c         1 MOL      0.509155
    151 O21        -4.7290   -6.6880    2.0580 o         1 MOL     -0.522878
    152 C52        -4.2060   -6.4250   -0.8650 c3        1 MOL      0.039412
    153 C53        -2.9420   -5.5040   -0.8790 c3        1 MOL     -0.357231
    154 C54        -1.8160   -5.9970   -1.7970 c         1 MOL      0.836267
    155 O22        -0.9360   -6.6650   -1.2690 o         1 MOL     -0.742189
    156 O23        -1.8870   -5.8020   -3.0130 o         1 MOL     -0.742189
    157 H67        -5.3320   -4.0980   -0.9820 hn        1 MOL      0.138481
    158 H68        -6.0770   -6.8500    0.0270 h1        1 MOL      0.115396
    159 H69        -4.5010   -6.6910   -1.8750 hc        1 MOL      0.023781
    160 H70        -3.7850   -7.3340   -0.4140 hc        1 MOL      0.023781
    161 H71        -2.4870   -5.4190    0.1060 hc        1 MOL      0.078351
    162 H72        -3.3550   -4.5240   -1.1390 hc        1 MOL      0.078351
    163 N14        -5.0980   -4.4890    1.9440 n         1 MOL     -0.198109
    164 C55        -4.7450   -4.2840    3.3260 c3        1 MOL     -0.088040
    165 H73        -4.4380   -5.2330    3.7670 h1        1 MOL      0.045287
    166 H74        -3.9240   -3.5710    3.3900 h1        1 MOL      0.045287
    167 H75        -5.6070   -3.8950    3.8680 h1        1 MOL      0.045287
    168 H76        -5.3350   -3.6900    1.3690 hn        1 MOL      0.191365
    169 Ca1         2.7270   -3.1620   -1.5390 Ca        1 MOL      1.810185
    170 O24         0.9540   -3.8090   -3.1790 oh        1 MOL     -0.813651
    171 H77         0.0940   -3.4000   -3.1070 ho        1 MOL      0.393272
    172 H78         0.8970   -4.3370   -3.9780 ho        1 MOL      0.393272
    173 O25         5.1850   -3.4830   -2.9200 oh        1 MOL     -0.813651
    174 H79         6.0420   -3.8380   -2.7160 ho        1 MOL      0.393272
    175 H80         5.3230   -2.9510   -3.7050 ho        1 MOL      0.393272
    176 O26         3.4270   -5.8580   -2.0380 oh        1 MOL     -0.813651
    177 H81         4.3750   -6.0130   -2.0710 ho        1 MOL      0.393272
    178 H82         3.0570   -6.6840   -1.7250 ho        1 MOL      0.393272
    179 O27         1.1930   -5.1910   -0.0730 oh        1 MOL     -0.813651
    180 H83         0.4370   -5.6980   -0.3350 ho        1 MOL      0.393272
    181 H84         1.5360   -5.6370    0.7010 ho        1 MOL      0.393272
    182 O28         4.0880   -4.5260    0.3290 oh        1 MOL     -0.813651
    183 H85         4.1660   -5.3760    0.7740 ho        1 MOL      0.393272
    184 H86         4.7820   -3.9990    0.7120 ho        1 MOL      0.393272
@<TRIPOS>BOND
     1    1    2 1   
     2    1    4 1   
     3    1    5 1   
     4    1    6 1   
     5    2    3 2   
     6    2    7 1   
     7    7    8 1   
     8    7   15 1   
     9    8    9 1   
    10    8   11 1   
    11    8   16 1   
    12    9   10 2   
    13    9   19 1   
    14   11   12 1   
    15   11   17 1   
    16   11   18 1   
    17   12   13 1   
    18   12   14 1   
    19   19   20 1   
    20   19   24 1   
    21   20   21 1   
    22   20   23 1   
    23   20   25 1   
    24   21   22 2   
    25   21   29 1   
    26   23   26 1   
    27   23   27 1   
    28   23   28 1   
    29   29   30 1   
    30   29   37 1   
    31   30   31 1   
    32   30   33 1   
    33   30   38 1   
    34   31   32 2   
    35   31   41 1   
    36   33   34 1   
    37   33   39 1   
    38   33   40 1   
    39   34   35 1   
    40   34   36 1   
    41   41   42 1   
    42   41   45 1   
    43   42   43 1   
    44   42   46 1   
    45   42   47 1   
    46   43   44 2   
    47   43   48 1   
    48   48   49 1   
    49   48   56 1   
    50   49   50 1   
    51   49   52 1   
    52   49   57 1   
    53   50   51 2   
    54   50   62 1   
    55   52   53 1   
    56   52   58 1   
    57   52   59 1   
    58   53   54 1   
    59   53   55 2   
    60   54   60 1   
    61   54   61 1   
    62   62   63 1   
    63   62   66 1   
    64   63   64 1   
    65   63   67 1   
    66   63   68 1   
    67   64   65 2   
    68   64   69 1   
    69   69   70 1   
    70   69   76 1   
    71   70   71 1   
    72   70   73 1   
    73   70   77 1   
    74   71   72 2   
    75   71   83 1   
    76   73   74 1   
    77   73   75 1   
    78   73   78 1   
    79   74   80 1   
    80   74   81 1   
    81   74   82 1   
    82   75   79 1   
    83   83   84 1   
    84   83   91 1   
    85   84   85 1   
    86   84   87 1   
    87   84   92 1   
    88   85   86 2   
    89   85  102 1   
    90   87   88 1   
    91   87   89 1   
    92   87   93 1   
    93   88   90 1   
    94   88   94 1   
    95   88   95 1   
    96   89   96 1   
    97   89   97 1   
    98   89   98 1   
    99   90   99 1   
   100   90  100 1   
   101   90  101 1   
   102  102  103 1   
   103  102  110 1   
   104  103  104 1   
   105  103  106 1   
   106  103  111 1   
   107  104  105 2   
   108  104  114 1   
   109  106  107 1   
   110  106  112 1   
   111  106  113 1   
   112  107  108 1   
   113  107  109 1   
   114  114  115 1   
   115  114  125 1   
   116  115  116 1   
   117  115  118 1   
   118  115  126 1   
   119  116  117 2   
   120  116  134 1   
   121  118  119 1   
   122  118  127 1   
   123  118  128 1   
   124  119  120 ar  
   125  119  121 ar  
   126  120  122 ar  
   127  120  129 1   
   128  121  123 ar  
   129  121  130 1   
   130  122  124 ar  
   131  122  131 1   
   132  123  124 ar  
   133  123  132 1   
   134  124  133 1   
   135  134  135 1   
   136  134  140 1   
   137  135  136 1   
   138  135  138 1   
   139  135  141 1   
   140  136  137 2   
   141  136  148 1   
   142  138  139 1   
   143  138  142 1   
   144  138  143 1   
   145  139  140 1   
   146  139  144 1   
   147  139  145 1   
   148  140  146 1   
   149  140  147 1   
   150  148  149 1   
   151  148  157 1   
   152  149  150 1   
   153  149  152 1   
   154  149  158 1   
   155  150  151 2   
   156  150  163 1   
   157  152  153 1   
   158  152  159 1   
   159  152  160 1   
   160  153  154 1   
   161  153  161 1   
   162  153  162 1   
   163  154  155 1   
   164  154  156 1   
   165  163  164 1   
   166  163  168 1   
   167  164  165 1   
   168  164  166 1   
   169  164  167 1   
   170  170  171 1   
   171  170  172 1   
   172  173  174 1   
   173  173  175 1   
   174  176  177 1   
   175  176  178 1   
   176  179  180 1   
   177  179  181 1   
   178  182  183 1   
   179  182  184 1   
@<TRIPOS>SUBSTRUCTURE
     1 MOL         1 TEMP              0 ****  ****    0 ROOT
