@<TRIPOS>MOLECULE
MOL
  175   173     1     0     0
SMALL
resp


@<TRIPOS>ATOM
      1 C1          0.3690    2.9300    5.5800 c3        1 MOL     -0.454171
      2 C2         -0.1230    2.8490    4.1280 c         1 MOL      0.637294
      3 O1          0.4800    3.4740    3.2220 o         1 MOL     -0.598376
      4 H1          1.2690    2.3250    5.6930 hc        1 MOL      0.117068
      5 H2          0.5950    3.9660    5.8310 hc        1 MOL      0.117068
      6 H3         -0.4070    2.5550    6.2480 hc        1 MOL      0.117068
      7 N1         -1.2240    2.1810    3.8700 n         1 MOL     -0.425211
      8 C3         -1.7880    1.8020    2.6340 c3        1 MOL      0.257073
      9 C4         -2.3860    3.1530    2.0240 c         1 MOL      0.253730
     10 O2         -3.4520    3.6560    2.4310 o         1 MOL     -0.519845
     11 C5         -2.8800    0.6510    2.8280 c3        1 MOL     -0.374501
     12 C6         -3.7590    0.4580    1.6140 c         1 MOL      0.868643
     13 O3         -4.9050   -0.0200    1.8550 o         1 MOL     -0.725143
     14 O4         -3.3870    0.7090    0.4890 o         1 MOL     -0.725143
     15 H4         -1.7200    1.7110    4.6120 hn        1 MOL      0.257120
     16 H5         -0.9660    1.3870    2.0570 h1        1 MOL      0.000213
     17 H6         -3.4940    0.9520    3.6680 hc        1 MOL      0.083790
     18 H7         -2.3040   -0.2400    3.0740 hc        1 MOL      0.083790
     19 N2         -1.6470    3.7880    1.1320 n         1 MOL     -0.088499
     20 C7         -1.7750    5.1580    0.6800 c3        1 MOL      0.209287
     21 C8         -2.9520    5.3790   -0.3300 c         1 MOL      0.327669
     22 O5         -3.4200    6.5380   -0.3890 o         1 MOL     -0.581183
     23 C9         -0.4190    5.6890    0.2140 c3        1 MOL     -0.342062
     24 H8         -0.9550    3.2280    0.6530 hn        1 MOL      0.314832
     25 H9         -1.9870    5.7010    1.5950 h1        1 MOL      0.014729
     26 H10         0.1990    5.5280    1.0940 hc        1 MOL      0.087053
     27 H11        -0.1190    5.0490   -0.6200 hc        1 MOL      0.087053
     28 H12        -0.3540    6.7740    0.1230 hc        1 MOL      0.087053
     29 N3         -3.2800    4.3940   -1.1100 n         1 MOL     -0.147064
     30 C10        -4.5780    4.3060   -1.7550 c3        1 MOL      0.121209
     31 C11        -5.6670    3.4400   -1.0290 c         1 MOL      0.312379
     32 O6         -6.6940    3.1830   -1.6770 o         1 MOL     -0.500655
     33 C12        -4.2890    3.8370   -3.1320 c3        1 MOL     -0.130504
     34 C13        -3.5170    2.5270   -3.4170 c         1 MOL      0.671701
     35 O7         -3.2170    1.8080   -2.4610 o         1 MOL     -0.680628
     36 O8         -3.1780    2.1100   -4.5760 o         1 MOL     -0.680628
     37 H13        -2.7990    3.5070   -1.0090 hn        1 MOL      0.127736
     38 H14        -5.0310    5.2800   -1.9200 h1        1 MOL      0.073733
     39 H15        -3.8030    4.6100   -3.7230 hc        1 MOL      0.010914
     40 H16        -5.2480    3.6760   -3.6280 hc        1 MOL      0.010914
     41 N4         -5.4870    2.9830    0.2230 n         1 MOL     -0.103486
     42 C14        -6.5260    2.3490    1.0740 c3        1 MOL     -0.012143
     43 C15        -7.2160    1.1790    0.3830 c         1 MOL      0.430067
     44 O9         -8.4270    1.0750    0.3930 o         1 MOL     -0.594475
     45 H17        -4.5950    3.1910    0.6360 hn        1 MOL      0.068536
     46 H18        -7.3270    3.0530    1.2990 h1        1 MOL      0.058478
     47 H19        -6.0860    2.0750    2.0280 h1        1 MOL      0.058478
     48 N5         -6.4690    0.3300   -0.2790 n         1 MOL     -0.082623
     49 C16        -7.0320   -0.7040   -1.1480 c3        1 MOL      0.027547
     50 C17        -7.1130   -2.0850   -0.3730 c         1 MOL      0.413937
     51 O10        -7.6820   -3.0500   -0.9220 o         1 MOL     -0.548155
     52 C18        -6.3790   -0.8130   -2.5560 c3        1 MOL     -0.299306
     53 C19        -5.1320   -1.6740   -2.5890 c         1 MOL      0.578966
     54 N6         -4.9700   -2.5970   -3.5180 n         1 MOL     -0.753365
     55 O11        -4.2770   -1.4970   -1.7350 o         1 MOL     -0.488123
     56 H20        -5.4780    0.3460   -0.0730 hn        1 MOL      0.056253
     57 H21        -8.0680   -0.4430   -1.3650 h1        1 MOL      0.108605
     58 H22        -6.1430    0.1750   -2.9410 hc        1 MOL      0.106394
     59 H23        -7.1470   -1.3280   -3.1230 hc        1 MOL      0.106394
     60 H24        -5.5650   -2.5810   -4.3350 hn        1 MOL      0.347226
     61 H25        -4.4280   -3.4260   -3.3460 hn        1 MOL      0.347226
     62 N7         -6.5110   -2.0990    0.8570 n         1 MOL     -0.253324
     63 C20        -6.5320   -3.2670    1.7830 c3        1 MOL     -0.239729
     64 C21        -5.2780   -4.1080    1.7420 c         1 MOL      0.582880
     65 O12        -5.1700   -5.0290    2.4980 o         1 MOL     -0.580368
     66 H26        -5.9660   -1.2970    1.1140 hn        1 MOL      0.272947
     67 H27        -7.4290   -3.8390    1.5810 h1        1 MOL      0.124397
     68 H28        -6.5360   -2.9460    2.8290 h1        1 MOL      0.124397
     69 N8         -4.2880   -3.7100    0.9480 n         1 MOL     -0.266260
     70 C22        -2.9200   -4.2450    0.9060 c3        1 MOL     -0.105707
     71 C23        -1.8330   -3.2260    0.9500 c         1 MOL      0.569234
     72 O13        -2.0080   -2.0950    0.4810 o         1 MOL     -0.528072
     73 C24        -2.5990   -5.0840   -0.3270 c3        1 MOL      0.294588
     74 C25        -3.0970   -6.5020   -0.2100 c3        1 MOL     -0.431248
     75 O14        -3.0970   -4.5810   -1.5110 oh        1 MOL     -0.544949
     76 H29        -4.3870   -2.8910    0.3770 hn        1 MOL      0.222875
     77 H30        -2.8760   -4.9810    1.7150 h1        1 MOL      0.087409
     78 H31        -1.5170   -5.1570   -0.4690 h1        1 MOL      0.104528
     79 H32        -4.0200   -4.8100   -1.5690 ho        1 MOL      0.382208
     80 H33        -2.4250   -7.0420   -0.8870 hc        1 MOL      0.103477
     81 H34        -2.9520   -6.8220    0.8140 hc        1 MOL      0.103477
     82 H35        -4.0860   -6.6450   -0.6390 hc        1 MOL      0.103477
     83 N9         -0.6400   -3.6720    1.3780 n         1 MOL     -0.614866
     84 C26         0.5830   -2.8880    1.4800 c3        1 MOL      0.059772
     85 C27         1.4310   -3.0460    0.1550 c         1 MOL      0.385385
     86 O15         1.9070   -4.1570   -0.1470 o         1 MOL     -0.566148
     87 C28         1.3780   -3.3030    2.7350 c3        1 MOL      0.115259
     88 C29         0.4950   -3.2470    4.0370 c3        1 MOL      0.119707
     89 C30         2.6710   -2.5300    2.8570 c3        1 MOL     -0.012158
     90 C31         1.2170   -3.3990    5.3740 c3        1 MOL     -0.226391
     91 H36        -0.5480   -4.6580    1.6020 hn        1 MOL      0.312748
     92 H37         0.2870   -1.8630    1.7130 h1        1 MOL      0.141030
     93 H38         1.5790   -4.3570    2.5500 hc        1 MOL     -0.028821
     94 H39        -0.2090   -4.0800    3.9810 hc        1 MOL     -0.023361
     95 H40        -0.1190   -2.3550    3.9530 hc        1 MOL     -0.023361
     96 H41         2.4470   -1.4670    2.9450 hc        1 MOL     -0.012464
     97 H42         3.2930   -2.9100    3.6660 hc        1 MOL     -0.012464
     98 H43         3.3750   -2.6390    2.0270 hc        1 MOL     -0.012464
     99 H44         1.7740   -4.3290    5.3230 hc        1 MOL      0.046818
    100 H45         1.8940   -2.5430    5.4610 hc        1 MOL      0.046818
    101 H46         0.5150   -3.3950    6.2030 hc        1 MOL      0.046818
    102 N10         1.7530   -1.9130   -0.4920 n         1 MOL     -0.003519
    103 C32         2.8090   -1.6830   -1.5330 c3        1 MOL      0.203662
    104 C33         4.2350   -1.4820   -0.9730 c         1 MOL      0.349682
    105 O16         4.4280   -1.1380    0.1980 o         1 MOL     -0.337891
    106 C34         2.4830   -0.5220   -2.4890 c3        1 MOL     -0.463010
    107 C35         1.1350   -0.7390   -3.2870 c         1 MOL      0.771150
    108 O17         0.1710    0.0610   -3.1180 o         1 MOL     -0.681160
    109 O18         0.9320   -1.8000   -3.9260 o         1 MOL     -0.681160
    110 H47         1.3440   -1.0560   -0.1380 hn        1 MOL     -0.036430
    111 H48         2.7750   -2.6060   -2.1120 h1        1 MOL      0.008497
    112 H49         3.2680   -0.4070   -3.2390 hc        1 MOL      0.116632
    113 H50         2.4170    0.4500   -1.9860 hc        1 MOL      0.116632
    114 N11         5.3390   -1.8470   -1.7180 n         1 MOL     -0.597280
    115 C36         6.7080   -1.5870   -1.2270 c3        1 MOL      0.337491
    116 C37         6.9500   -0.2680   -0.5970 c         1 MOL      0.485810
    117 O19         7.4170   -0.2570    0.5130 o         1 MOL     -0.555547
    118 C38         7.7580   -1.7390   -2.3720 c3        1 MOL     -0.253585
    119 C39         9.1750   -1.2780   -2.0430 ca        1 MOL      0.057991
    120 C40         9.9170   -1.9440   -1.0590 ca        1 MOL     -0.120730
    121 C41         9.7520   -0.1470   -2.6890 ca        1 MOL     -0.120730
    122 C42        11.1350   -1.4260   -0.6360 ca        1 MOL     -0.143398
    123 C43        11.0560    0.2510   -2.4050 ca        1 MOL     -0.143398
    124 C44        11.6940   -0.2770   -1.2550 ca        1 MOL     -0.102132
    125 H51         5.1810   -2.2950   -2.6000 hn        1 MOL      0.331595
    126 H52         6.8930   -2.2670   -0.3880 h1        1 MOL      0.032689
    127 H53         7.4480   -1.3650   -3.3400 hc        1 MOL      0.071094
    128 H54         7.8510   -2.8230   -2.4690 hc        1 MOL      0.071094
    129 H55         9.4440   -2.7410   -0.5020 ha        1 MOL      0.107788
    130 H56         9.1340    0.3930   -3.3990 ha        1 MOL      0.107788
    131 H57        11.6050   -1.9500    0.1820 ha        1 MOL      0.118928
    132 H58        11.5460    1.1230   -2.8280 ha        1 MOL      0.118928
    133 H59        12.5530    0.2570   -0.8590 ha        1 MOL      0.110244
    134 N12         6.4720    0.9160   -1.0440 n         1 MOL     -0.047259
    135 C45         6.7860    2.1500   -0.4080 c3        1 MOL     -0.023761
    136 C46         5.8910    2.4700    0.7670 c         1 MOL      0.286742
    137 O20         6.2190    3.3620    1.5960 o         1 MOL     -0.526762
    138 C47         6.6400    3.2150   -1.5010 c3        1 MOL     -0.038521
    139 C48         6.6860    2.4410   -2.8490 c3        1 MOL     -0.177457
    140 C49         6.0150    1.1370   -2.4350 c3        1 MOL     -0.021942
    141 H60         7.8230    2.1860   -0.0720 h1        1 MOL      0.095554
    142 H61         5.6710    3.6980   -1.3860 hc        1 MOL      0.055483
    143 H62         7.4010    3.9880   -1.4180 hc        1 MOL      0.055483
    144 H63         6.0170    2.8950   -3.5830 hc        1 MOL      0.058145
    145 H64         7.6880    2.4080   -3.2810 hc        1 MOL      0.058145
    146 H65         4.9320    1.2680   -2.4920 h1        1 MOL      0.062976
    147 H66         6.1810    0.2840   -3.0970 h1        1 MOL      0.062976
    148 N13         4.7990    1.7460    0.9090 n         1 MOL     -0.102864
    149 C50         3.8980    1.6730    2.0950 c3        1 MOL     -0.041056
    150 C51         4.4220    0.7570    3.2240 c         1 MOL      0.406964
    151 O21         4.2310    0.9890    4.4360 o         1 MOL     -0.563417
    152 C52         2.5350    1.2020    1.6000 c3        1 MOL      0.145358
    153 C53         1.8240    2.0570    0.5380 c3        1 MOL     -0.033124
    154 C54         0.5000    1.4620    0.0010 c         1 MOL      0.593864
    155 O22        -0.3220    2.1310   -0.6880 o         1 MOL     -0.718207
    156 O23         0.2380    0.2640    0.0910 o         1 MOL     -0.718207
    157 H67         4.7920    1.0360    0.1890 hn        1 MOL      0.055227
    158 H68         3.8150    2.6670    2.5320 h1        1 MOL      0.103479
    159 H69         1.8070    1.2350    2.4070 hc        1 MOL     -0.018227
    160 H70         2.5910    0.1410    1.3600 hc        1 MOL     -0.018227
    161 H71         2.4810    2.0580   -0.3380 hc        1 MOL      0.005638
    162 H72         1.6530    3.0990    0.8170 hc        1 MOL      0.005638
    163 N14         5.2520   -0.1880    2.8410 n         1 MOL      0.045781
    164 C55         6.1090   -0.8500    3.8140 c3        1 MOL     -0.242824
    165 H73         7.1350   -0.8610    3.4450 h1        1 MOL      0.083846
    166 H74         6.0690   -0.3110    4.7610 h1        1 MOL      0.083846
    167 H75         5.7660   -1.8740    3.9630 h1        1 MOL      0.083846
    168 H76         5.2790   -0.4560    1.8670 hn        1 MOL      0.076902
    169 Ca1        -1.7810   -0.0910   -1.3930 Ca        1 MOL      1.752969
    170 O24        -1.2860   -2.6780   -2.3040 oh        1 MOL     -0.778936
    171 H77        -0.5450   -2.6780   -2.9080 ho        1 MOL      0.355777
    172 H78        -1.6130   -3.5750   -2.3050 ho        1 MOL      0.355777
    173 O25        -2.8250   -0.5720   -4.3400 oh        1 MOL     -0.778936
    174 H79        -3.5060   -1.2300   -4.2630 ho        1 MOL      0.355777
    175 H80        -3.2990    0.2600   -4.3080 ho        1 MOL      0.355777
@<TRIPOS>BOND
     1    1    2 1   
     2    1    4 1   
     3    1    5 1   
     4    1    6 1   
     5    2    3 2   
     6    2    7 1   
     7    7    8 1   
     8    7   15 1   
     9    8    9 1   
    10    8   11 1   
    11    8   16 1   
    12    9   10 2   
    13    9   19 1   
    14   11   12 1   
    15   11   17 1   
    16   11   18 1   
    17   12   13 1   
    18   12   14 1   
    19   19   20 1   
    20   19   24 1   
    21   20   21 1   
    22   20   23 1   
    23   20   25 1   
    24   21   22 2   
    25   21   29 1   
    26   23   26 1   
    27   23   27 1   
    28   23   28 1   
    29   29   30 1   
    30   29   37 1   
    31   30   31 1   
    32   30   33 1   
    33   30   38 1   
    34   31   32 2   
    35   31   41 1   
    36   33   34 1   
    37   33   39 1   
    38   33   40 1   
    39   34   35 1   
    40   34   36 1   
    41   41   42 1   
    42   41   45 1   
    43   42   43 1   
    44   42   46 1   
    45   42   47 1   
    46   43   44 2   
    47   43   48 1   
    48   48   49 1   
    49   48   56 1   
    50   49   50 1   
    51   49   52 1   
    52   49   57 1   
    53   50   51 2   
    54   50   62 1   
    55   52   53 1   
    56   52   58 1   
    57   52   59 1   
    58   53   54 1   
    59   53   55 2   
    60   54   60 1   
    61   54   61 1   
    62   62   63 1   
    63   62   66 1   
    64   63   64 1   
    65   63   67 1   
    66   63   68 1   
    67   64   65 2   
    68   64   69 1   
    69   69   70 1   
    70   69   76 1   
    71   70   71 1   
    72   70   73 1   
    73   70   77 1   
    74   71   72 2   
    75   71   83 1   
    76   73   74 1   
    77   73   75 1   
    78   73   78 1   
    79   74   80 1   
    80   74   81 1   
    81   74   82 1   
    82   75   79 1   
    83   83   84 1   
    84   83   91 1   
    85   84   85 1   
    86   84   87 1   
    87   84   92 1   
    88   85   86 2   
    89   85  102 1   
    90   87   88 1   
    91   87   89 1   
    92   87   93 1   
    93   88   90 1   
    94   88   94 1   
    95   88   95 1   
    96   89   96 1   
    97   89   97 1   
    98   89   98 1   
    99   90   99 1   
   100   90  100 1   
   101   90  101 1   
   102  102  103 1   
   103  102  110 1   
   104  103  104 1   
   105  103  106 1   
   106  103  111 1   
   107  104  105 2   
   108  104  114 1   
   109  106  107 1   
   110  106  112 1   
   111  106  113 1   
   112  107  108 1   
   113  107  109 1   
   114  114  115 1   
   115  114  125 1   
   116  115  116 1   
   117  115  118 1   
   118  115  126 1   
   119  116  117 2   
   120  116  134 1   
   121  118  119 1   
   122  118  127 1   
   123  118  128 1   
   124  119  120 ar  
   125  119  121 ar  
   126  120  122 ar  
   127  120  129 1   
   128  121  123 ar  
   129  121  130 1   
   130  122  124 ar  
   131  122  131 1   
   132  123  124 ar  
   133  123  132 1   
   134  124  133 1   
   135  134  135 1   
   136  134  140 1   
   137  135  136 1   
   138  135  138 1   
   139  135  141 1   
   140  136  137 2   
   141  136  148 1   
   142  138  139 1   
   143  138  142 1   
   144  138  143 1   
   145  139  140 1   
   146  139  144 1   
   147  139  145 1   
   148  140  146 1   
   149  140  147 1   
   150  148  149 1   
   151  148  157 1   
   152  149  150 1   
   153  149  152 1   
   154  149  158 1   
   155  150  151 2   
   156  150  163 1   
   157  152  153 1   
   158  152  159 1   
   159  152  160 1   
   160  153  154 1   
   161  153  161 1   
   162  153  162 1   
   163  154  155 1   
   164  154  156 1   
   165  163  164 1   
   166  163  168 1   
   167  164  165 1   
   168  164  166 1   
   169  164  167 1   
   170  170  171 1   
   171  170  172 1   
   172  173  174 1   
   173  173  175 1   
@<TRIPOS>SUBSTRUCTURE
     1 MOL         1 TEMP              0 ****  ****    0 ROOT
