@<TRIPOS>MOLECULE
MOL
  176   174     1     0     0
SMALL
resp


@<TRIPOS>ATOM
      1 C1         -0.4580    4.6840    6.1530 c3        1 MOL     -0.295355
      2 C2         -0.6270    4.1680    4.6620 c         1 MOL      0.705867
      3 O1          0.3420    4.3030    3.9390 o         1 MOL     -0.579769
      4 H1         -0.8960    5.6780    6.2450 hc        1 MOL      0.074688
      5 H2         -0.9640    4.0000    6.8340 hc        1 MOL      0.074688
      6 H3          0.6020    4.7290    6.4050 hc        1 MOL      0.074688
      7 N1         -1.7980    3.8700    4.2060 n         1 MOL     -0.610572
      8 C3         -1.9200    3.2740    2.7990 c3        1 MOL      0.176988
      9 C4         -2.2500    4.3890    1.7810 c         1 MOL      0.613121
     10 O2         -2.9960    5.3500    2.0260 o         1 MOL     -0.546258
     11 C5         -3.0490    2.1420    2.9090 c3        1 MOL     -0.362984
     12 C6         -3.0880    1.2330    1.7270 c         1 MOL      0.852789
     13 O3         -2.9880    1.7830    0.5770 o         1 MOL     -0.771261
     14 O4         -3.0510   -0.0160    1.7080 o         1 MOL     -0.771261
     15 H4         -2.5570    3.6200    4.8280 hn        1 MOL      0.327025
     16 H5         -0.9530    2.8890    2.4760 h1        1 MOL      0.002441
     17 H6         -3.9880    2.6850    3.0320 hc        1 MOL      0.100444
     18 H7         -2.7930    1.5780    3.8060 hc        1 MOL      0.100444
     19 N2         -1.6590    4.2750    0.5670 n         1 MOL     -0.413572
     20 C7         -1.7800    5.1810   -0.5360 c3        1 MOL     -0.102584
     21 C8         -3.0650    5.0710   -1.3430 c         1 MOL      0.539319
     22 O5         -3.5990    6.0720   -1.8270 o         1 MOL     -0.578912
     23 C9         -0.6710    5.0140   -1.5660 c3        1 MOL     -0.026613
     24 C10         0.6480    5.3290   -0.9300 c3        1 MOL     -0.050611
     25 C11         1.7080    5.2860   -1.9810 c3        1 MOL     -0.004799
     26 C12         1.7460    6.5800   -2.8100 c3        1 MOL      0.061460
     27 N3          3.0450    6.7880   -3.4750 n4        1 MOL     -0.293632
     28 H8         -1.1200    3.4450    0.3820 hn        1 MOL      0.343336
     29 H9         -1.6230    6.2060   -0.2050 h1        1 MOL      0.104485
     30 H10        -0.8530    5.7190   -2.3770 hc        1 MOL      0.021035
     31 H11        -0.7360    3.9790   -1.9020 hc        1 MOL      0.021035
     32 H12         0.7920    4.5090   -0.2360 hc        1 MOL      0.044783
     33 H13         0.6540    6.2610   -0.3600 hc        1 MOL      0.044783
     34 H14         1.4940    4.4600   -2.6720 hc        1 MOL      0.031013
     35 H15         2.7110    5.1560   -1.5740 hc        1 MOL      0.031013
     36 H16         1.5660    7.4420   -2.1850 hx        1 MOL      0.068967
     37 H17         0.9980    6.5930   -3.6080 hx        1 MOL      0.068967
     38 H18         3.5650    5.9590   -3.7390 hn        1 MOL      0.307639
     39 H19         2.8920    7.3720   -4.2870 hn        1 MOL      0.307639
     40 H20         3.6350    7.4430   -2.9920 hn        1 MOL      0.307639
     41 N4         -3.6500    3.9010   -1.3740 n         1 MOL     -0.290648
     42 C13        -4.7420    3.4570   -2.2400 c3        1 MOL      0.156040
     43 C14        -5.9440    2.8470   -1.5120 c         1 MOL      0.361423
     44 O6         -7.1100    3.1080   -1.9280 o         1 MOL     -0.547864
     45 C15        -4.0630    2.5980   -3.3170 c3        1 MOL     -0.218646
     46 C16        -3.2990    1.3430   -2.7370 c         1 MOL      0.809521
     47 O7         -3.8160    0.5300   -1.9750 o         1 MOL     -0.790470
     48 O8         -2.0740    1.2280   -2.9490 o         1 MOL     -0.790470
     49 H21        -3.0770    3.1560   -0.9890 hn        1 MOL      0.205245
     50 H22        -5.2120    4.3270   -2.7190 h1        1 MOL      0.068602
     51 H23        -3.4050    3.2450   -3.8890 hc        1 MOL      0.046782
     52 H24        -4.8150    2.2120   -3.9980 hc        1 MOL      0.046782
     53 N5         -5.6590    2.1600   -0.4520 n         1 MOL     -0.052099
     54 C17        -6.5990    1.5050    0.4650 c3        1 MOL     -0.223970
     55 C18        -6.8780    0.0310    0.0110 c         1 MOL      0.506443
     56 O9         -7.9730   -0.4220    0.3290 o         1 MOL     -0.560202
     57 H25        -4.6850    2.0710   -0.2060 hn        1 MOL      0.037286
     58 H26        -7.4980    2.1150    0.4640 h1        1 MOL      0.124648
     59 H27        -6.0910    1.4770    1.4310 h1        1 MOL      0.124648
     60 N6         -6.0000   -0.6190   -0.7430 n         1 MOL     -0.243529
     61 C19        -6.1690   -2.0030   -1.1090 c3        1 MOL     -0.110814
     62 C20        -6.0000   -3.0070    0.0460 c         1 MOL      0.552268
     63 O10        -6.4430   -4.0870   -0.1890 o         1 MOL     -0.556520
     64 C21        -5.3070   -2.3230   -2.3560 c3        1 MOL     -0.072134
     65 C22        -3.8860   -2.2980   -1.9620 c         1 MOL      0.335277
     66 N7         -3.0200   -2.4320   -2.9400 n         1 MOL     -0.403277
     67 O11        -3.4190   -2.0440   -0.8380 o         1 MOL     -0.267778
     68 H28        -5.1740   -0.1260   -1.0660 hn        1 MOL      0.225335
     69 H29        -7.2040   -2.0570   -1.4280 h1        1 MOL      0.119841
     70 H30        -5.4050   -1.5810   -3.1440 hc        1 MOL      0.066214
     71 H31        -5.6590   -3.2680   -2.7690 hc        1 MOL      0.066214
     72 H32        -3.4890   -2.6500   -3.8090 hn        1 MOL      0.244841
     73 H33        -2.0750   -2.6850   -2.6740 hn        1 MOL      0.244841
     74 N8         -5.4720   -2.6880    1.2160 n         1 MOL     -0.237754
     75 C23        -5.5150   -3.4860    2.3340 c3        1 MOL     -0.173668
     76 C24        -4.0790   -3.9140    2.7240 c         1 MOL      0.524484
     77 O12        -3.9340   -4.5980    3.7510 o         1 MOL     -0.561490
     78 H34        -4.8470   -1.9080    1.1460 hn        1 MOL      0.216007
     79 H35        -5.9680   -4.4660    2.1770 h1        1 MOL      0.123363
     80 H36        -5.9300   -2.9490    3.1910 h1        1 MOL      0.123363
     81 N9         -3.0540   -3.6770    1.8380 n         1 MOL     -0.238832
     82 C25        -1.7110   -4.2210    1.8870 c3        1 MOL      0.025719
     83 C26        -0.6650   -3.1770    1.5270 c         1 MOL      0.528318
     84 O13        -0.8510   -2.3530    0.6530 o         1 MOL     -0.595401
     85 C27        -1.5450   -5.5450    1.0920 c3        1 MOL     -0.212987
     86 C28        -1.5450   -5.2920   -0.4020 ca        1 MOL      0.009229
     87 C29        -0.3220   -5.1290   -1.0970 ca        1 MOL     -0.104882
     88 C30        -2.8490   -5.4600   -1.0740 ca        1 MOL     -0.104882
     89 C31        -0.3670   -4.9060   -2.5250 ca        1 MOL     -0.295708
     90 C32        -2.8660   -5.3370   -2.5010 ca        1 MOL     -0.295708
     91 C33        -1.6500   -4.9740   -3.1900 ca        1 MOL      0.367026
     92 O14        -1.7600   -4.8060   -4.5790 oh        1 MOL     -0.585531
     93 H37        -3.3150   -3.0780    1.0600 hn        1 MOL      0.069522
     94 H38        -1.4610   -4.4220    2.9340 h1        1 MOL      0.052665
     95 H39        -2.3670   -6.1490    1.4930 hc        1 MOL      0.105267
     96 H40        -0.5730   -5.9220    1.3850 hc        1 MOL      0.105267
     97 H41         0.6580   -5.1140   -0.6500 ha        1 MOL      0.147982
     98 H42        -3.8030   -5.4930   -0.5730 ha        1 MOL      0.147982
     99 H43         0.4970   -4.6400   -3.1060 ha        1 MOL      0.153088
    100 H44        -3.7780   -5.4160   -3.0750 ha        1 MOL      0.153088
    101 H45        -2.6140   -4.8750   -4.9990 ho        1 MOL      0.412397
    102 N10         0.4860   -3.3060    2.1530 n         1 MOL     -0.413192
    103 C34         1.6630   -2.4820    2.0820 c3        1 MOL      0.198293
    104 C35         2.7490   -3.2030    1.2750 c         1 MOL      0.417266
    105 O15         3.1260   -4.3450    1.5980 o         1 MOL     -0.534015
    106 C36         2.2110   -2.2120    3.4600 c3        1 MOL      0.168049
    107 C37         1.1820   -1.5850    4.4490 c3        1 MOL     -0.101655
    108 C38         3.5270   -1.3770    3.4670 c3        1 MOL     -0.418510
    109 C39         0.3980   -0.3880    3.8530 c3        1 MOL     -0.005099
    110 H46         0.4870   -4.0190    2.8700 hn        1 MOL      0.288010
    111 H47         1.4950   -1.6110    1.4580 h1        1 MOL     -0.020378
    112 H48         2.4210   -3.2550    3.7190 hc        1 MOL     -0.029876
    113 H49         1.7570   -1.3280    5.3340 hc        1 MOL      0.024523
    114 H50         0.5690   -2.4380    4.7590 hc        1 MOL      0.024523
    115 H51         4.3180   -1.9270    2.9440 hc        1 MOL      0.115897
    116 H52         3.4090   -0.3890    3.0190 hc        1 MOL      0.115897
    117 H53         3.8200   -1.2020    4.4950 hc        1 MOL      0.115897
    118 H54         1.1100    0.3560    3.5320 hc        1 MOL      0.012403
    119 H55        -0.3080   -0.6900    3.0710 hc        1 MOL      0.012403
    120 H56        -0.2690   -0.0020    4.6230 hc        1 MOL      0.012403
    121 N11         3.2590   -2.6330    0.1440 n         1 MOL     -0.244393
    122 C40         4.4270   -3.0890   -0.6090 c3        1 MOL      0.056325
    123 C41         5.6940   -2.4380   -0.0720 c         1 MOL      0.527211
    124 O16         5.6420   -1.3700    0.5280 o         1 MOL     -0.425004
    125 C42         4.2430   -2.8300   -2.0810 c3        1 MOL     -0.032403
    126 O17         4.5900   -1.5520   -2.4860 oh        1 MOL     -0.496534
    127 H57         2.7630   -1.8370   -0.2380 hn        1 MOL      0.176704
    128 H58         4.6410   -4.1490   -0.4520 h1        1 MOL      0.039117
    129 H59         3.2110   -3.1000   -2.2920 h1        1 MOL      0.066049
    130 H60         4.8960   -3.4700   -2.6920 h1        1 MOL      0.066049
    131 H61         3.7850   -1.2180   -2.9000 ho        1 MOL      0.392996
    132 N12         6.8460   -3.0130   -0.3990 n         1 MOL     -0.480619
    133 C43         8.1350   -2.4600    0.1180 c3        1 MOL      0.217062
    134 C44         8.3150   -0.9230   -0.3440 c         1 MOL      0.299700
    135 O18         8.8460   -0.0780    0.3690 o         1 MOL     -0.494197
    136 C45         9.2690   -3.2220   -0.4630 c3        1 MOL     -0.305013
    137 H62         6.8450   -3.8920   -0.9110 hn        1 MOL      0.300242
    138 H63         8.1080   -2.5670    1.2020 h1        1 MOL      0.069691
    139 H64         9.2680   -4.2930   -0.2310 hc        1 MOL      0.090616
    140 H65         9.2950   -2.9760   -1.5290 hc        1 MOL      0.090616
    141 H66        10.1490   -2.7980    0.0210 hc        1 MOL      0.090616
    142 N13         7.9150   -0.5800   -1.5480 n         1 MOL     -0.122594
    143 C46         7.9430    0.7800   -2.1260 c3        1 MOL      0.047057
    144 C47         6.8190    1.6640   -1.6210 c         1 MOL      0.368121
    145 O19         6.8350    2.8920   -1.6670 o         1 MOL     -0.530915
    146 C48         7.8930    0.5560   -3.5940 c3        1 MOL     -0.189670
    147 H67         7.6130   -1.3380   -2.1490 hn        1 MOL      0.212227
    148 H68         8.8950    1.2340   -1.8570 h1        1 MOL      0.109533
    149 H69         6.8900    0.3410   -3.9900 hc        1 MOL      0.056395
    150 H70         8.3250    1.3730   -4.1660 hc        1 MOL      0.056395
    151 H71         8.6280   -0.2300   -3.7230 hc        1 MOL      0.056395
    152 N14         5.7420    1.0620   -1.0220 n         1 MOL     -0.003996
    153 C49         4.7770    1.8360   -0.2260 c3        1 MOL     -0.175225
    154 C50         5.2870    2.0720    1.2540 c         1 MOL      0.531641
    155 O20         4.9360    3.0730    1.8910 o         1 MOL     -0.557545
    156 C51         3.4980    1.0840   -0.2410 c3        1 MOL     -0.059739
    157 C52         2.2550    1.7540    0.4170 c3        1 MOL     -0.018215
    158 C53         0.9620    1.1390   -0.0090 c         1 MOL      0.757360
    159 O21        -0.0430    1.8000   -0.0150 o         1 MOL     -0.767588
    160 O22         0.9370   -0.0360   -0.4270 o         1 MOL     -0.767588
    161 H72         5.7100    0.0600   -1.0810 hn        1 MOL     -0.078009
    162 H73         4.6880    2.8170   -0.6880 h1        1 MOL      0.104951
    163 H74         3.6260    0.1530    0.3010 hc        1 MOL      0.020786
    164 H75         3.3330    0.8730   -1.2970 hc        1 MOL      0.020786
    165 H76         2.2320    2.8350    0.2630 hc        1 MOL      0.032506
    166 H77         2.4120    1.5900    1.4860 hc        1 MOL      0.032506
    167 N15         6.1230    1.1770    1.7860 n         1 MOL     -0.202023
    168 C54         6.7710    1.3500    3.1410 c3        1 MOL     -0.137782
    169 H78         6.5350    2.3390    3.5320 h1        1 MOL      0.080698
    170 H79         6.3940    0.5900    3.8250 h1        1 MOL      0.080698
    171 H80         7.8520    1.2480    3.0430 h1        1 MOL      0.080698
    172 H81         6.3030    0.2910    1.3360 hn        1 MOL      0.181594
    173 Ca1        -1.6230   -0.1700   -0.6610 Ca        1 MOL      1.755677
    174 O23        -0.3560   -1.5370   -2.5050 oh        1 MOL     -0.947378
    175 H82         0.4540   -1.3450   -2.0260 ho        1 MOL      0.457356
    176 H83        -0.0600   -1.8010   -3.3790 ho        1 MOL      0.457356
@<TRIPOS>BOND
     1    1    2 1   
     2    1    4 1   
     3    1    5 1   
     4    1    6 1   
     5    2    3 2   
     6    2    7 1   
     7    7    8 1   
     8    7   15 1   
     9    8    9 1   
    10    8   11 1   
    11    8   16 1   
    12    9   10 2   
    13    9   19 1   
    14   11   12 1   
    15   11   17 1   
    16   11   18 1   
    17   12   13 1   
    18   12   14 1   
    19   19   20 1   
    20   19   28 1   
    21   20   21 1   
    22   20   23 1   
    23   20   29 1   
    24   21   22 2   
    25   21   41 1   
    26   23   24 1   
    27   23   30 1   
    28   23   31 1   
    29   24   25 1   
    30   24   32 1   
    31   24   33 1   
    32   25   26 1   
    33   25   34 1   
    34   25   35 1   
    35   26   27 1   
    36   26   36 1   
    37   26   37 1   
    38   27   38 1   
    39   27   39 1   
    40   27   40 1   
    41   41   42 1   
    42   41   49 1   
    43   42   43 1   
    44   42   45 1   
    45   42   50 1   
    46   43   44 2   
    47   43   53 1   
    48   45   46 1   
    49   45   51 1   
    50   45   52 1   
    51   46   47 1   
    52   46   48 1   
    53   53   54 1   
    54   53   57 1   
    55   54   55 1   
    56   54   58 1   
    57   54   59 1   
    58   55   56 2   
    59   55   60 1   
    60   60   61 1   
    61   60   68 1   
    62   61   62 1   
    63   61   64 1   
    64   61   69 1   
    65   62   63 2   
    66   62   74 1   
    67   64   65 1   
    68   64   70 1   
    69   64   71 1   
    70   65   66 1   
    71   65   67 2   
    72   66   72 1   
    73   66   73 1   
    74   74   75 1   
    75   74   78 1   
    76   75   76 1   
    77   75   79 1   
    78   75   80 1   
    79   76   77 2   
    80   76   81 1   
    81   81   82 1   
    82   81   93 1   
    83   82   83 1   
    84   82   85 1   
    85   82   94 1   
    86   83   84 2   
    87   83  102 1   
    88   85   86 1   
    89   85   95 1   
    90   85   96 1   
    91   86   87 ar  
    92   86   88 ar  
    93   87   89 ar  
    94   87   97 1   
    95   88   90 ar  
    96   88   98 1   
    97   89   91 ar  
    98   89   99 1   
    99   90   91 ar  
   100   90  100 1   
   101   91   92 1   
   102   92  101 1   
   103  102  103 1   
   104  102  110 1   
   105  103  104 1   
   106  103  106 1   
   107  103  111 1   
   108  104  105 2   
   109  104  121 1   
   110  106  107 1   
   111  106  108 1   
   112  106  112 1   
   113  107  109 1   
   114  107  113 1   
   115  107  114 1   
   116  108  115 1   
   117  108  116 1   
   118  108  117 1   
   119  109  118 1   
   120  109  119 1   
   121  109  120 1   
   122  121  122 1   
   123  121  127 1   
   124  122  123 1   
   125  122  125 1   
   126  122  128 1   
   127  123  124 2   
   128  123  132 1   
   129  125  126 1   
   130  125  129 1   
   131  125  130 1   
   132  126  131 1   
   133  132  133 1   
   134  132  137 1   
   135  133  134 1   
   136  133  136 1   
   137  133  138 1   
   138  134  135 2   
   139  134  142 1   
   140  136  139 1   
   141  136  140 1   
   142  136  141 1   
   143  142  143 1   
   144  142  147 1   
   145  143  144 1   
   146  143  146 1   
   147  143  148 1   
   148  144  145 2   
   149  144  152 1   
   150  146  149 1   
   151  146  150 1   
   152  146  151 1   
   153  152  153 1   
   154  152  161 1   
   155  153  154 1   
   156  153  156 1   
   157  153  162 1   
   158  154  155 2   
   159  154  167 1   
   160  156  157 1   
   161  156  163 1   
   162  156  164 1   
   163  157  158 1   
   164  157  165 1   
   165  157  166 1   
   166  158  159 1   
   167  158  160 1   
   168  167  168 1   
   169  167  172 1   
   170  168  169 1   
   171  168  170 1   
   172  168  171 1   
   173  174  175 1   
   174  174  176 1   
@<TRIPOS>SUBSTRUCTURE
     1 MOL         1 TEMP              0 ****  ****    0 ROOT
