@<TRIPOS>MOLECULE
MOL
  189   185     1     0     0
SMALL
resp


@<TRIPOS>ATOM
      1 C1         -0.2660    2.5590   -5.2230 c3        1 MOL     -0.412270
      2 C2          0.3010    2.3090   -3.8350 c         1 MOL      0.666378
      3 O1         -0.3800    2.5320   -2.7950 o         1 MOL     -0.566261
      4 H1          0.2240    1.9000   -5.9400 hc        1 MOL      0.105569
      5 H2         -1.3380    2.3590   -5.2210 hc        1 MOL      0.105569
      6 H3         -0.0900    3.5970   -5.5070 hc        1 MOL      0.105569
      7 N1          1.5580    1.8440   -3.7830 n         1 MOL     -0.637915
      8 C3          2.2610    1.5790   -2.4780 c3        1 MOL      0.467230
      9 C4          2.7780    2.8660   -1.7810 c         1 MOL      0.258763
     10 O2          3.9770    3.1650   -1.9140 o         1 MOL     -0.505384
     11 C5          3.4080    0.5360   -2.6350 c3        1 MOL     -0.467272
     12 C6          4.0660    0.1030   -1.3310 c         1 MOL      0.869864
     13 O3          3.5910    0.4190   -0.2770 o         1 MOL     -0.693180
     14 O4          5.1370   -0.5520   -1.3800 o         1 MOL     -0.693180
     15 H4          2.0800    1.5740   -4.6050 hn        1 MOL      0.338259
     16 H5          1.5270    1.1710   -1.7760 h1        1 MOL     -0.056630
     17 H6          4.0970    0.9680   -3.3530 hc        1 MOL      0.100202
     18 H7          2.9700   -0.3050   -3.1760 hc        1 MOL      0.100202
     19 N2          1.8990    3.5950   -1.2640 n         1 MOL     -0.153399
     20 C7          2.1110    4.9760   -0.8380 c3        1 MOL     -0.050609
     21 C8          3.2140    5.0570    0.3010 c         1 MOL      0.475338
     22 O5          3.8340    6.1100    0.5000 o         1 MOL     -0.551212
     23 C9          0.8140    5.6300   -0.4020 c3        1 MOL     -0.321201
     24 C10        -0.1800    6.0340   -1.5050 c3        1 MOL      0.248703
     25 C11         0.3390    7.2380   -2.3060 c3        1 MOL     -0.138594
     26 C12        -0.8060    7.8920   -3.0760 c3        1 MOL     -0.024187
     27 N3         -1.5960    6.9020   -3.8310 n4        1 MOL     -0.341612
     28 H8          0.9770    3.1660   -1.2440 hn        1 MOL      0.291137
     29 H9          2.5120    5.5510   -1.6750 h1        1 MOL      0.070874
     30 H10         1.0180    6.4140    0.3160 hc        1 MOL      0.122921
     31 H11         0.3230    4.8700    0.2060 hc        1 MOL      0.122921
     32 H12        -1.1190    6.3860   -1.0670 hc        1 MOL     -0.038506
     33 H13        -0.3320    5.1990   -2.1940 hc        1 MOL     -0.038506
     34 H14         1.1490    6.9910   -3.0030 hc        1 MOL      0.078445
     35 H15         0.7590    7.8890   -1.5410 hc        1 MOL      0.078445
     36 H16        -0.4240    8.6590   -3.7420 hx        1 MOL      0.096688
     37 H17        -1.4250    8.4480   -2.3700 hx        1 MOL      0.096688
     38 H18        -1.0100    6.5540   -4.5680 hn        1 MOL      0.324952
     39 H19        -1.9790    6.1670   -3.2600 hn        1 MOL      0.324952
     40 H20        -2.3890    7.3870   -4.2360 hn        1 MOL      0.324952
     41 N4          3.4210    3.9180    1.0160 n         1 MOL     -0.203119
     42 C13         4.5020    3.8300    2.0250 c3        1 MOL     -0.039067
     43 C14         5.7430    2.9240    1.7440 c         1 MOL      0.426008
     44 O6          6.5660    2.7990    2.6740 o         1 MOL     -0.500712
     45 C15         3.8730    3.5510    3.4580 c3        1 MOL     -0.328741
     46 C16         2.8670    2.3520    3.4660 c         1 MOL      0.828748
     47 O7          2.7560    1.4870    2.5870 o         1 MOL     -0.721580
     48 O8          2.1810    2.3110    4.5200 o         1 MOL     -0.721580
     49 H21         3.0310    3.0610    0.6400 hn        1 MOL      0.085943
     50 H22         4.9210    4.8320    2.0880 h1        1 MOL      0.127736
     51 H23         3.4250    4.5030    3.7370 hc        1 MOL      0.100801
     52 H24         4.6080    3.2500    4.1960 hc        1 MOL      0.100801
     53 N5          5.9370    2.4330    0.5150 n         1 MOL     -0.220094
     54 C17         7.2360    1.7970    0.1360 c3        1 MOL     -0.299602
     55 C18         7.6170    0.5670    0.8680 c         1 MOL      0.607365
     56 O9          8.8050    0.2490    1.0580 o         1 MOL     -0.588692
     57 H25         5.1390    2.4340   -0.1120 hn        1 MOL      0.238360
     58 H26         8.0010    2.5290    0.4000 h1        1 MOL      0.133946
     59 H27         7.1520    1.4950   -0.9110 h1        1 MOL      0.133946
     60 N6          6.6340   -0.2510    1.3350 n         1 MOL     -0.203595
     61 C19         6.7570   -1.5050    2.0790 c3        1 MOL     -0.098410
     62 C20         6.7860   -2.8040    1.2090 c         1 MOL      0.378126
     63 O10         7.1730   -3.9580    1.5090 o         1 MOL     -0.546248
     64 C21         5.7690   -1.5710    3.2770 c3        1 MOL     -0.201648
     65 C22         4.3000   -1.7290    2.8800 c         1 MOL      0.794835
     66 O11         3.3990   -1.5300    3.7340 o         1 MOL     -0.736254
     67 O12         4.0010   -1.9780    1.7020 o         1 MOL     -0.736254
     68 H28         5.7540   -0.1000    0.8800 hn        1 MOL      0.144468
     69 H29         7.7340   -1.5730    2.5460 h1        1 MOL      0.135135
     70 H30         5.8840   -0.7120    3.9440 hc        1 MOL      0.073316
     71 H31         6.0150   -2.4010    3.9350 hc        1 MOL      0.073316
     72 N7          6.5620   -2.6150   -0.0890 n         1 MOL     -0.134054
     73 C23         6.6760   -3.6370   -1.1240 c3        1 MOL     -0.285852
     74 C24         5.3150   -4.3980   -1.3070 c         1 MOL      0.511175
     75 O13         5.3410   -5.5030   -1.8330 o         1 MOL     -0.578107
     76 H32         6.3450   -1.7030   -0.4570 hn        1 MOL      0.212486
     77 H33         7.4490   -4.3750   -0.8750 h1        1 MOL      0.137732
     78 H34         7.0150   -3.1210   -2.0160 h1        1 MOL      0.137732
     79 N8          4.2320   -3.9080   -0.7700 n         1 MOL     -0.132226
     80 C25         2.8890   -4.4860   -1.0150 c3        1 MOL     -0.074562
     81 C26         1.7790   -3.4090   -1.1660 c         1 MOL      0.791754
     82 O14         2.0000   -2.2770   -0.7050 o         1 MOL     -0.710561
     83 C27         2.3800   -5.5840   -0.0430 c3        1 MOL      0.325114
     84 C28         2.9540   -6.9820   -0.1500 c3        1 MOL     -0.442894
     85 O15         2.5410   -5.2210    1.3170 oh        1 MOL     -0.583157
     86 H35         4.2390   -2.9380   -0.4950 hn        1 MOL      0.123491
     87 H36         2.9730   -4.9120   -2.0150 h1        1 MOL      0.025158
     88 H37         1.3330   -5.7050   -0.3650 h1        1 MOL      0.020502
     89 H38         3.4810   -5.4280    1.4130 ho        1 MOL      0.403539
     90 H39         3.9700   -6.7260    0.1340 hc        1 MOL      0.122657
     91 H40         2.5340   -7.6700    0.5970 hc        1 MOL      0.122657
     92 H41         2.9850   -7.4050   -1.1580 hc        1 MOL      0.122657
     93 N9          0.6870   -3.7410   -1.8130 n         1 MOL     -0.552588
     94 C29        -0.4940   -2.9170   -2.0700 c3        1 MOL     -0.013426
     95 C30        -1.7960   -3.5180   -1.4130 c         1 MOL      0.399662
     96 O16        -2.1690   -4.6650   -1.6860 o         1 MOL     -0.541805
     97 C31        -0.7020   -2.6210   -3.5730 c3        1 MOL      0.304242
     98 C32         0.5580   -1.9380   -4.1180 c3        1 MOL      0.074135
     99 C33        -1.9590   -1.6940   -3.6810 c3        1 MOL     -0.501969
    100 C34         0.7700   -1.8970   -5.6540 c3        1 MOL     -0.215825
    101 H42         0.7640   -4.5790   -2.3730 hn        1 MOL      0.285331
    102 H43        -0.3490   -1.9580   -1.5830 h1        1 MOL      0.074523
    103 H44        -0.7630   -3.5200   -4.1910 hc        1 MOL     -0.016992
    104 H45         1.3820   -2.4700   -3.6430 hc        1 MOL      0.001656
    105 H46         0.7260   -0.9290   -3.7280 hc        1 MOL      0.001656
    106 H47        -2.9020   -2.1080   -3.3140 hc        1 MOL      0.107976
    107 H48        -1.7930   -0.7130   -3.2540 hc        1 MOL      0.107976
    108 H49        -2.1860   -1.5900   -4.7420 hc        1 MOL      0.107976
    109 H50         1.6810   -1.3740   -5.9520 hc        1 MOL      0.045083
    110 H51         0.8370   -2.9260   -5.9950 hc        1 MOL      0.045083
    111 H52        -0.1200   -1.4780   -6.1280 hc        1 MOL      0.045083
    112 N10        -2.5140   -2.7520   -0.5650 n         1 MOL     -0.163023
    113 C35        -3.6400   -3.1780    0.2540 c3        1 MOL      0.022358
    114 C36        -4.9090   -2.6760   -0.4020 c         1 MOL      0.282345
    115 O17        -4.8860   -1.7760   -1.1860 o         1 MOL     -0.324355
    116 C37        -3.5460   -2.6030    1.6760 c3        1 MOL     -0.018841
    117 C38        -2.1800   -2.9110    2.3340 c3        1 MOL     -0.221005
    118 O18        -3.7090   -1.2570    1.7190 oh        1 MOL     -0.296770
    119 H53        -2.1250   -1.8490   -0.3210 hn        1 MOL      0.336646
    120 H54        -3.6630   -4.2720    0.3260 h1        1 MOL      0.090606
    121 H55        -4.3260   -3.0460    2.2930 h1        1 MOL      0.030081
    122 H56        -3.3800   -1.0850    2.6040 ho        1 MOL      0.336366
    123 H57        -2.0690   -3.9880    2.4270 hc        1 MOL      0.073717
    124 H58        -1.3700   -2.4790    1.7460 hc        1 MOL      0.073717
    125 H59        -2.0380   -2.6010    3.3620 hc        1 MOL      0.073717
    126 N11        -6.0640   -3.2140   -0.0370 n         1 MOL     -0.198392
    127 C39        -7.3720   -2.7140   -0.4780 c3        1 MOL     -0.191014
    128 C40        -7.5980   -1.2570   -0.1030 c         1 MOL      0.518501
    129 O19        -8.3030   -0.6340   -0.9140 o         1 MOL     -0.526831
    130 C41        -8.4590   -3.6130    0.0920 c3        1 MOL      0.172105
    131 C42        -8.4560   -5.0020   -0.5360 c3        1 MOL     -0.264049
    132 O20        -8.2600   -3.8770    1.5060 oh        1 MOL     -0.628202
    133 H60        -6.1080   -4.0500    0.5280 hn        1 MOL      0.259349
    134 H61        -7.3940   -2.8610   -1.5540 h1        1 MOL      0.159425
    135 H62        -9.3790   -3.0650   -0.0570 h1        1 MOL      0.084030
    136 H63        -9.0360   -4.3400    1.8210 ho        1 MOL      0.418192
    137 H64        -9.2860   -5.6500   -0.2310 hc        1 MOL      0.082730
    138 H65        -8.5100   -4.9300   -1.6230 hc        1 MOL      0.082730
    139 H66        -7.5240   -5.5210   -0.3170 hc        1 MOL      0.082730
    140 N12        -7.0560   -0.7710    0.9870 n         1 MOL     -0.318346
    141 C43        -7.0930    0.6410    1.4350 c3        1 MOL     -0.027552
    142 C44        -6.2210    1.4780    0.5610 c         1 MOL      0.279400
    143 O21        -6.6260    2.6250    0.2360 o         1 MOL     -0.546890
    144 C45        -6.7180    0.6490    2.9100 c3        1 MOL     -0.033570
    145 C46        -7.0620    2.0530    3.4940 c3        1 MOL     -0.121890
    146 C47        -7.0380    1.9400    5.0470 c3        1 MOL      0.054835
    147 C48        -7.1200    3.3130    5.7560 c3        1 MOL      0.008633
    148 N13        -6.5670    3.3060    7.1030 n4        1 MOL     -0.212397
    149 H67        -6.5810   -1.4090    1.6130 hn        1 MOL      0.231741
    150 H68        -8.1020    1.0410    1.3450 h1        1 MOL      0.140022
    151 H69        -5.6580    0.4550    3.0970 hc        1 MOL      0.045548
    152 H70        -7.2920   -0.0950    3.4640 hc        1 MOL      0.045548
    153 H71        -8.0440    2.3600    3.1250 hc        1 MOL      0.063988
    154 H72        -6.2600    2.7380    3.2530 hc        1 MOL      0.063988
    155 H73        -6.0970    1.4500    5.2950 hc        1 MOL      0.007806
    156 H74        -7.7660    1.2460    5.4720 hc        1 MOL      0.007806
    157 H75        -8.1270    3.7350    5.7050 hx        1 MOL      0.079167
    158 H76        -6.5100    3.9630    5.1180 hx        1 MOL      0.079167
    159 H77        -6.6900    4.1620    7.6110 hn        1 MOL      0.256983
    160 H78        -7.0110    2.6270    7.7040 hn        1 MOL      0.256983
    161 H79        -5.5780    3.0580    7.0950 hn        1 MOL      0.256983
    162 N14        -5.1600    0.9530   -0.0060 n         1 MOL      0.402796
    163 C49        -4.3590    1.7110   -0.9430 c3        1 MOL     -0.227244
    164 C50        -4.8750    1.7750   -2.4020 c         1 MOL      0.614697
    165 O22        -4.8650    2.8990   -2.9150 o         1 MOL     -0.577504
    166 C51        -2.9900    1.1940   -0.7890 c3        1 MOL      0.331624
    167 C52        -2.1390    1.6570    0.3720 c3        1 MOL     -0.275567
    168 C53        -0.8660    0.8660    0.4390 c         1 MOL      0.835869
    169 O23        -0.7370   -0.3790    0.5170 o         1 MOL     -0.764395
    170 O24         0.2530    1.4160    0.3620 o         1 MOL     -0.764395
    171 H80        -4.9180   -0.0030    0.2200 hn        1 MOL     -0.344943
    172 H81        -4.3600    2.7610   -0.6660 h1        1 MOL      0.060826
    173 H82        -2.4750    1.3610   -1.7310 hc        1 MOL     -0.097273
    174 H83        -2.9940    0.1130   -0.7260 hc        1 MOL     -0.097273
    175 H84        -2.7360    1.3650    1.2350 hc        1 MOL      0.025118
    176 H85        -2.0360    2.7400    0.3670 hc        1 MOL      0.025118
    177 N15        -5.2880    0.6610   -3.0290 n         1 MOL     -0.320627
    178 C54        -6.2650    0.7560   -4.1720 c3        1 MOL     -0.209928
    179 H86        -7.2270    1.1080   -3.7990 h1        1 MOL      0.103623
    180 H87        -5.8870    1.4550   -4.9170 h1        1 MOL      0.103623
    181 H88        -6.3910   -0.2270   -4.6260 h1        1 MOL      0.103623
    182 H89        -5.1140   -0.2310   -2.6020 hn        1 MOL      0.237993
    183 Ca1         1.8540   -0.5140    1.2740 Ca        1 MOL      1.791344
    184 O25         0.4730    0.0810    3.5130 oh        1 MOL     -0.852146
    185 H90         0.2190   -0.5740    4.1630 ho        1 MOL      0.396849
    186 H91         1.1300    0.6180    3.9550 ho        1 MOL      0.396849
    187 O26         1.1190   -2.9070    2.2090 oh        1 MOL     -0.852146
    188 H92         1.5970   -3.6750    1.8870 ho        1 MOL      0.396849
    189 H93         1.0530   -3.0430    3.1560 ho        1 MOL      0.396849
@<TRIPOS>BOND
     1    1    2 1   
     2    1    4 1   
     3    1    5 1   
     4    1    6 1   
     5    2    3 2   
     6    2    7 1   
     7    7    8 1   
     8    7   15 1   
     9    8    9 1   
    10    8   11 1   
    11    8   16 1   
    12    9   10 2   
    13    9   19 1   
    14   11   12 1   
    15   11   17 1   
    16   11   18 1   
    17   12   13 1   
    18   12   14 1   
    19   19   20 1   
    20   19   28 1   
    21   20   21 1   
    22   20   23 1   
    23   20   29 1   
    24   21   22 2   
    25   21   41 1   
    26   23   24 1   
    27   23   30 1   
    28   23   31 1   
    29   24   25 1   
    30   24   32 1   
    31   24   33 1   
    32   25   26 1   
    33   25   34 1   
    34   25   35 1   
    35   26   27 1   
    36   26   36 1   
    37   26   37 1   
    38   27   38 1   
    39   27   39 1   
    40   27   40 1   
    41   41   42 1   
    42   41   49 1   
    43   42   43 1   
    44   42   45 1   
    45   42   50 1   
    46   43   44 2   
    47   43   53 1   
    48   45   46 1   
    49   45   51 1   
    50   45   52 1   
    51   46   47 1   
    52   46   48 1   
    53   53   54 1   
    54   53   57 1   
    55   54   55 1   
    56   54   58 1   
    57   54   59 1   
    58   55   56 2   
    59   55   60 1   
    60   60   61 1   
    61   60   68 1   
    62   61   62 1   
    63   61   64 1   
    64   61   69 1   
    65   62   63 2   
    66   62   72 1   
    67   64   65 1   
    68   64   70 1   
    69   64   71 1   
    70   65   66 1   
    71   65   67 1   
    72   72   73 1   
    73   72   76 1   
    74   73   74 1   
    75   73   77 1   
    76   73   78 1   
    77   74   75 2   
    78   74   79 1   
    79   79   80 1   
    80   79   86 1   
    81   80   81 1   
    82   80   83 1   
    83   80   87 1   
    84   81   82 2   
    85   81   93 1   
    86   83   84 1   
    87   83   85 1   
    88   83   88 1   
    89   84   90 1   
    90   84   91 1   
    91   84   92 1   
    92   85   89 1   
    93   93   94 1   
    94   93  101 1   
    95   94   95 1   
    96   94   97 1   
    97   94  102 1   
    98   95   96 2   
    99   95  112 1   
   100   97   98 1   
   101   97   99 1   
   102   97  103 1   
   103   98  100 1   
   104   98  104 1   
   105   98  105 1   
   106   99  106 1   
   107   99  107 1   
   108   99  108 1   
   109  100  109 1   
   110  100  110 1   
   111  100  111 1   
   112  112  113 1   
   113  112  119 1   
   114  113  114 1   
   115  113  116 1   
   116  113  120 1   
   117  114  115 2   
   118  114  126 1   
   119  116  117 1   
   120  116  118 1   
   121  116  121 1   
   122  117  123 1   
   123  117  124 1   
   124  117  125 1   
   125  118  122 1   
   126  126  127 1   
   127  126  133 1   
   128  127  128 1   
   129  127  130 1   
   130  127  134 1   
   131  128  129 2   
   132  128  140 1   
   133  130  131 1   
   134  130  132 1   
   135  130  135 1   
   136  131  137 1   
   137  131  138 1   
   138  131  139 1   
   139  132  136 1   
   140  140  141 1   
   141  140  149 1   
   142  141  142 1   
   143  141  144 1   
   144  141  150 1   
   145  142  143 2   
   146  142  162 1   
   147  144  145 1   
   148  144  151 1   
   149  144  152 1   
   150  145  146 1   
   151  145  153 1   
   152  145  154 1   
   153  146  147 1   
   154  146  155 1   
   155  146  156 1   
   156  147  148 1   
   157  147  157 1   
   158  147  158 1   
   159  148  159 1   
   160  148  160 1   
   161  148  161 1   
   162  162  163 1   
   163  162  171 1   
   164  163  164 1   
   165  163  166 1   
   166  163  172 1   
   167  164  165 2   
   168  164  177 1   
   169  166  167 1   
   170  166  173 1   
   171  166  174 1   
   172  167  168 1   
   173  167  175 1   
   174  167  176 1   
   175  168  169 1   
   176  168  170 1   
   177  177  178 1   
   178  177  182 1   
   179  178  179 1   
   180  178  180 1   
   181  178  181 1   
   182  184  185 1   
   183  184  186 1   
   184  187  188 1   
   185  187  189 1   
@<TRIPOS>SUBSTRUCTURE
     1 MOL         1 TEMP              0 ****  ****    0 ROOT
