@<TRIPOS>MOLECULE
MOL
  189   185     1     0     0
SMALL
resp


@<TRIPOS>ATOM
      1 C1          0.0400    1.4480    6.2480 c3        1 MOL     -0.363555
      2 C2         -0.2720    1.4140    4.7730 c         1 MOL      0.729848
      3 O1          0.5130    1.9300    3.9870 o         1 MOL     -0.597129
      4 H1         -0.4580    0.6130    6.7420 hc        1 MOL      0.095433
      5 H2          1.1170    1.3680    6.3950 hc        1 MOL      0.095433
      6 H3         -0.3170    2.3860    6.6740 hc        1 MOL      0.095433
      7 N1         -1.4530    0.9040    4.3660 n         1 MOL     -0.619376
      8 C3         -2.0050    1.0780    3.0420 c3        1 MOL      0.173286
      9 C4         -2.1900    2.6140    2.6810 c         1 MOL      0.558100
     10 O2         -2.9980    3.2500    3.3910 o         1 MOL     -0.567656
     11 C5         -3.3380    0.3520    2.9460 c3        1 MOL     -0.330837
     12 C6         -4.0070    0.5020    1.6120 c         1 MOL      0.957037
     13 O3         -5.1900    0.2170    1.4270 o         1 MOL     -0.760364
     14 O4         -3.3110    0.7200    0.6250 o         1 MOL     -0.760364
     15 H4         -1.9800    0.3190    4.9990 hn        1 MOL      0.341892
     16 H5         -1.3100    0.6640    2.3030 h1        1 MOL     -0.022385
     17 H6         -4.0510    0.8200    3.6180 hc        1 MOL      0.061813
     18 H7         -3.2630   -0.6960    3.2510 hc        1 MOL      0.061813
     19 N2         -1.5330    3.1660    1.6630 n         1 MOL     -0.328531
     20 C7         -1.3310    4.5830    1.3450 c3        1 MOL     -0.100798
     21 C8         -2.4250    5.0700    0.3930 c         1 MOL      0.538252
     22 O5         -2.6430    6.2500    0.1780 o         1 MOL     -0.587423
     23 C9          0.0770    4.8810    0.8540 c3        1 MOL      0.430720
     24 C10         0.4250    6.3620    1.0380 c3        1 MOL     -0.286816
     25 C11         1.8830    6.7080    0.8060 c3        1 MOL      0.221718
     26 C12         2.1490    8.1570    0.5860 c3        1 MOL      0.059902
     27 N3          3.5710    8.5520    0.3560 n4        1 MOL     -0.516031
     28 H8         -1.0920    2.4970    1.0480 hn        1 MOL      0.264006
     29 H9         -1.5260    5.1280    2.2680 h1        1 MOL      0.070257
     30 H10         0.0090    4.6020   -0.1970 hc        1 MOL     -0.083384
     31 H11         0.8310    4.2150    1.2760 hc        1 MOL     -0.083384
     32 H12         0.2440    6.5310    2.0980 hc        1 MOL      0.060217
     33 H13        -0.1470    7.0250    0.3910 hc        1 MOL      0.060217
     34 H14         2.1520    6.2050   -0.1250 hc        1 MOL     -0.035459
     35 H15         2.5500    6.3660    1.5970 hc        1 MOL     -0.035459
     36 H16         1.9150    8.7020    1.4980 hx        1 MOL      0.073781
     37 H17         1.4600    8.4520   -0.2060 hx        1 MOL      0.073781
     38 H18         3.8150    8.3010   -0.5890 hn        1 MOL      0.363804
     39 H19         3.5620    9.5620    0.4340 hn        1 MOL      0.363804
     40 H20         4.2560    8.2230    1.0210 hn        1 MOL      0.363804
     41 N4         -3.1170    4.1420   -0.2950 n         1 MOL     -0.411664
     42 C13        -3.9400    4.5050   -1.4620 c3        1 MOL      0.073179
     43 C14        -5.2730    3.7140   -1.4860 c         1 MOL      0.446866
     44 O6         -6.0730    3.8520   -2.4130 o         1 MOL     -0.525967
     45 C15        -3.1580    4.3660   -2.7750 c3        1 MOL     -0.144977
     46 C16        -2.3560    3.1070   -2.9180 c         1 MOL      0.823090
     47 O7         -2.3960    2.2210   -2.0230 o         1 MOL     -0.739276
     48 O8         -1.6690    2.9680   -3.9480 o         1 MOL     -0.739276
     49 H21        -2.8970    3.1650   -0.1700 hn        1 MOL      0.257699
     50 H22        -4.2440    5.5480   -1.4260 h1        1 MOL      0.093812
     51 H23        -2.4790    5.2160   -2.9170 hc        1 MOL      0.030117
     52 H24        -3.9220    4.4670   -3.5480 hc        1 MOL      0.030117
     53 N5         -5.5970    2.9770   -0.4060 n         1 MOL     -0.301933
     54 C17        -7.0010    2.5840    0.0100 c3        1 MOL     -0.213507
     55 C18        -7.5130    1.2600   -0.5190 c         1 MOL      0.561074
     56 O9         -8.7070    1.0820   -0.4160 o         1 MOL     -0.586067
     57 H25        -4.8100    2.7120    0.1660 hn        1 MOL      0.183112
     58 H26        -7.6750    3.4010   -0.2520 h1        1 MOL      0.133117
     59 H27        -6.9930    2.5400    1.1050 h1        1 MOL      0.133117
     60 N6         -6.6620    0.4250   -1.1360 n         1 MOL     -0.169871
     61 C19        -7.0150   -0.7840   -1.8380 c3        1 MOL     -0.090507
     62 C20        -7.1380   -2.0120   -0.9930 c         1 MOL      0.415824
     63 O10        -7.6180   -3.0210   -1.4610 o         1 MOL     -0.513759
     64 C21        -6.0920   -0.9290   -3.1020 c3        1 MOL     -0.264111
     65 C22        -4.6640   -0.8790   -2.6990 c         1 MOL      0.741338
     66 O11        -4.1970   -1.5640   -1.8200 o         1 MOL     -0.679182
     67 O12        -3.8120   -0.2070   -3.3190 o         1 MOL     -0.679182
     68 H28        -5.7060    0.5960   -0.8630 hn        1 MOL      0.127703
     69 H29        -7.9840   -0.6530   -2.3180 h1        1 MOL      0.140865
     70 H30        -6.1610   -0.0930   -3.8000 hc        1 MOL      0.093480
     71 H31        -6.2220   -1.9070   -3.5480 hc        1 MOL      0.093480
     72 N7         -6.8690   -1.8540    0.2920 n         1 MOL     -0.229404
     73 C23        -6.9790   -3.0570    1.2090 c3        1 MOL     -0.214684
     74 C24        -5.7490   -3.9650    1.0320 c         1 MOL      0.535475
     75 O13        -5.7510   -5.1320    1.4400 o         1 MOL     -0.565373
     76 H32        -6.6080   -0.9850    0.7370 hn        1 MOL      0.284915
     77 H33        -7.8540   -3.6450    0.9380 h1        1 MOL      0.119753
     78 H34        -7.0300   -2.6990    2.2410 h1        1 MOL      0.119753
     79 N8         -4.6620   -3.5190    0.3810 n         1 MOL     -0.153445
     80 C25        -3.5180   -4.2850    0.1300 c3        1 MOL     -0.140164
     81 C26        -2.2630   -3.3740    0.3640 c         1 MOL      0.591808
     82 O14        -2.2430   -2.1290    0.4110 o         1 MOL     -0.610782
     83 C27        -3.4380   -4.9910   -1.2830 c3        1 MOL      0.583666
     84 C28        -3.9550   -6.4400   -1.1210 c3        1 MOL     -0.274612
     85 O15        -4.2050   -4.2770   -2.2250 oh        1 MOL     -0.681770
     86 H35        -4.5710   -2.5240    0.2480 hn        1 MOL      0.127378
     87 H36        -3.4960   -5.0380    0.9140 h1        1 MOL      0.065280
     88 H37        -2.4190   -5.1080   -1.6580 h1        1 MOL     -0.070885
     89 H38        -4.2970   -3.3870   -1.8540 ho        1 MOL      0.440329
     90 H39        -3.6130   -6.9440   -2.0240 hc        1 MOL      0.057423
     91 H40        -3.4400   -7.0230   -0.3520 hc        1 MOL      0.057423
     92 H41        -5.0390   -6.4390   -1.0250 hc        1 MOL      0.057423
     93 N9         -1.1030   -4.0340    0.4890 n         1 MOL     -0.528026
     94 C29         0.1970   -3.4760    0.9190 c3        1 MOL      0.155773
     95 C30         1.3300   -3.9510   -0.0280 c         1 MOL      0.387261
     96 O16         1.8020   -5.1030   -0.0260 o         1 MOL     -0.534229
     97 C31         0.5510   -3.8550    2.4360 c3        1 MOL      0.013632
     98 C32        -0.3600   -2.9610    3.3720 c3        1 MOL      0.092437
     99 C33         2.0000   -3.6390    2.8870 c3        1 MOL     -0.194208
    100 C34        -0.1810   -2.7600    4.8610 c3        1 MOL     -0.336740
    101 H42        -0.9730   -5.0310    0.5570 hn        1 MOL      0.276792
    102 H43         0.1630   -2.3960    0.9010 h1        1 MOL     -0.030688
    103 H44         0.2760   -4.8950    2.6320 hc        1 MOL      0.014859
    104 H45        -1.3920   -3.2190    3.1580 hc        1 MOL      0.035646
    105 H46        -0.1840   -1.9740    2.9410 hc        1 MOL      0.035646
    106 H47         2.0000   -3.7220    3.9680 hc        1 MOL      0.057222
    107 H48         2.6340   -4.3720    2.3900 hc        1 MOL      0.057222
    108 H49         2.2780   -2.6600    2.4790 hc        1 MOL      0.057222
    109 H50        -0.1330   -3.6870    5.4460 hc        1 MOL      0.073831
    110 H51         0.6710   -2.1700    5.1870 hc        1 MOL      0.073831
    111 H52        -1.0550   -2.2330    5.2340 hc        1 MOL      0.073831
    112 N10         1.9210   -2.9830   -0.6850 n         1 MOL     -0.163993
    113 C35         3.0510   -3.1530   -1.5670 c3        1 MOL     -0.041267
    114 C36         4.4360   -3.1230   -0.7770 c         1 MOL      0.336451
    115 O17         4.4620   -2.8220    0.4400 o         1 MOL     -0.355129
    116 C37         3.0600   -1.9790   -2.5570 c3        1 MOL      0.210641
    117 C38         1.8150   -1.9240   -3.4640 c3        1 MOL     -0.080915
    118 O18         3.1260   -0.7740   -1.8310 oh        1 MOL     -0.593245
    119 H53         1.4500   -2.0930   -0.6240 hn        1 MOL      0.140228
    120 H54         3.0570   -4.0830   -2.1220 h1        1 MOL      0.087425
    121 H55         3.9730   -2.0820   -3.1550 h1        1 MOL      0.019791
    122 H56         2.2520   -0.5630   -1.4870 ho        1 MOL      0.320457
    123 H57         1.8500   -1.0590   -4.1320 hc        1 MOL      0.034202
    124 H58         1.7540   -2.8170   -4.0830 hc        1 MOL      0.034202
    125 H59         0.8690   -1.8810   -2.9310 hc        1 MOL      0.034202
    126 N11         5.5970   -3.2410   -1.4950 n         1 MOL     -0.249174
    127 C39         6.9390   -3.1240   -0.9170 c3        1 MOL     -0.004736
    128 C40         7.1700   -1.7660   -0.2000 c         1 MOL      0.321354
    129 O19         7.6860   -1.7420    0.9310 o         1 MOL     -0.429597
    130 C41         7.9920   -3.3640   -1.9750 c3        1 MOL      0.544932
    131 C42         9.3570   -3.7200   -1.3920 c3        1 MOL     -0.510435
    132 O20         7.6460   -4.3880   -2.9080 oh        1 MOL     -0.609477
    133 H60         5.5420   -3.4950   -2.4750 hn        1 MOL      0.186470
    134 H61         7.1610   -3.8910   -0.1780 h1        1 MOL      0.090376
    135 H62         7.9890   -2.4580   -2.5700 h1        1 MOL     -0.111794
    136 H63         8.0490   -4.0850   -3.7230 ho        1 MOL      0.381749
    137 H64         9.7430   -2.9050   -0.7710 hc        1 MOL      0.133917
    138 H65         9.3420   -4.6120   -0.7780 hc        1 MOL      0.133917
    139 H66        10.1290   -3.9730   -2.1200 hc        1 MOL      0.133917
    140 N12         6.7820   -0.6090   -0.7990 n         1 MOL     -0.401479
    141 C43         6.8350    0.6660   -0.1250 c3        1 MOL      0.038607
    142 C44         6.0870    0.7690    1.2190 c         1 MOL      0.340693
    143 O21         6.6610    1.0530    2.2870 o         1 MOL     -0.477604
    144 C45         6.3640    1.7720   -1.0780 c3        1 MOL      0.065447
    145 C46         7.4990    2.3340   -1.9680 c3        1 MOL      0.055546
    146 C47         7.1100    3.6200   -2.6970 c3        1 MOL      0.004760
    147 C48         8.3810    4.2610   -3.2720 c3        1 MOL     -0.031122
    148 N13         9.0450    3.4150   -4.2680 n4        1 MOL     -0.201124
    149 H67         6.2750   -0.5970   -1.6750 hn        1 MOL      0.279948
    150 H68         7.8640    0.8920    0.1610 h1        1 MOL      0.079978
    151 H69         5.9570    2.5970   -0.4990 hc        1 MOL      0.007522
    152 H70         5.5960    1.4030   -1.7490 hc        1 MOL      0.007522
    153 H71         7.7110    1.5680   -2.7140 hc        1 MOL     -0.020455
    154 H72         8.3720    2.4720   -1.3260 hc        1 MOL     -0.020455
    155 H73         6.6430    4.3570   -2.0440 hc        1 MOL      0.025846
    156 H74         6.3980    3.4700   -3.5170 hc        1 MOL      0.025846
    157 H75         9.1070    4.4750   -2.4810 hx        1 MOL      0.089552
    158 H76         8.1430    5.2130   -3.7320 hx        1 MOL      0.089552
    159 H77         9.7160    3.9530   -4.8090 hn        1 MOL      0.253815
    160 H78         9.4110    2.5400   -3.9260 hn        1 MOL      0.253815
    161 H79         8.3510    3.1470   -4.9490 hn        1 MOL      0.253815
    162 N14         4.7750    0.5080    1.1440 n         1 MOL     -0.104405
    163 C49         3.8710    0.4900    2.2350 c3        1 MOL     -0.110963
    164 C50         4.2970   -0.4340    3.3430 c         1 MOL      0.408922
    165 O22         4.1600   -0.0780    4.5450 o         1 MOL     -0.552016
    166 C51         2.4950    0.0600    1.6100 c3        1 MOL      0.126445
    167 C52         1.9410    1.1130    0.7580 c3        1 MOL      0.271073
    168 C53         0.7300    0.7190   -0.0590 c         1 MOL      0.688948
    169 O23        -0.2990    1.4010   -0.1290 o         1 MOL     -0.697653
    170 O24         0.6390   -0.4330   -0.6460 o         1 MOL     -0.697653
    171 H80         4.3490    0.2990    0.2510 hn        1 MOL      0.068630
    172 H81         3.6680    1.5000    2.6010 h1        1 MOL      0.084440
    173 H82         1.7170   -0.2860    2.2940 hc        1 MOL      0.025446
    174 H83         2.6160   -0.7350    0.8780 hc        1 MOL      0.025446
    175 H84         2.6950    1.5760    0.1270 hc        1 MOL     -0.121264
    176 H85         1.5450    1.8810    1.4100 hc        1 MOL     -0.121264
    177 N15         4.7790   -1.6400    2.9930 n         1 MOL     -0.004823
    178 C54         5.4700   -2.6220    3.8840 c3        1 MOL     -0.144684
    179 H86         4.7960   -3.4510    4.1010 h1        1 MOL      0.073070
    180 H87         6.3620   -3.0010    3.3860 h1        1 MOL      0.073070
    181 H88         5.7530   -2.1310    4.8160 h1        1 MOL      0.073070
    182 H89         4.7570   -1.8520    2.0080 hn        1 MOL      0.060069
    183 Ca1        -1.9760   -0.2130   -1.3730 Ca        1 MOL      1.785603
    184 O25        -1.5960   -2.7120   -2.8990 oh        1 MOL     -0.917202
    185 H90        -2.2350   -3.4140   -2.8060 ho        1 MOL      0.418868
    186 H91        -1.4420   -2.6560   -3.8380 ho        1 MOL      0.418868
    187 O26        -0.7100    0.4610   -3.5330 oh        1 MOL     -0.917202
    188 H92        -1.1270    1.2930   -3.7370 ho        1 MOL      0.418868
    189 H93        -0.0820    0.3110   -4.2480 ho        1 MOL      0.418868
@<TRIPOS>BOND
     1    1    2 1   
     2    1    4 1   
     3    1    5 1   
     4    1    6 1   
     5    2    3 2   
     6    2    7 1   
     7    7    8 1   
     8    7   15 1   
     9    8    9 1   
    10    8   11 1   
    11    8   16 1   
    12    9   10 2   
    13    9   19 1   
    14   11   12 1   
    15   11   17 1   
    16   11   18 1   
    17   12   13 1   
    18   12   14 1   
    19   19   20 1   
    20   19   28 1   
    21   20   21 1   
    22   20   23 1   
    23   20   29 1   
    24   21   22 2   
    25   21   41 1   
    26   23   24 1   
    27   23   30 1   
    28   23   31 1   
    29   24   25 1   
    30   24   32 1   
    31   24   33 1   
    32   25   26 1   
    33   25   34 1   
    34   25   35 1   
    35   26   27 1   
    36   26   36 1   
    37   26   37 1   
    38   27   38 1   
    39   27   39 1   
    40   27   40 1   
    41   41   42 1   
    42   41   49 1   
    43   42   43 1   
    44   42   45 1   
    45   42   50 1   
    46   43   44 2   
    47   43   53 1   
    48   45   46 1   
    49   45   51 1   
    50   45   52 1   
    51   46   47 1   
    52   46   48 1   
    53   53   54 1   
    54   53   57 1   
    55   54   55 1   
    56   54   58 1   
    57   54   59 1   
    58   55   56 2   
    59   55   60 1   
    60   60   61 1   
    61   60   68 1   
    62   61   62 1   
    63   61   64 1   
    64   61   69 1   
    65   62   63 2   
    66   62   72 1   
    67   64   65 1   
    68   64   70 1   
    69   64   71 1   
    70   65   66 1   
    71   65   67 1   
    72   72   73 1   
    73   72   76 1   
    74   73   74 1   
    75   73   77 1   
    76   73   78 1   
    77   74   75 2   
    78   74   79 1   
    79   79   80 1   
    80   79   86 1   
    81   80   81 1   
    82   80   83 1   
    83   80   87 1   
    84   81   82 2   
    85   81   93 1   
    86   83   84 1   
    87   83   85 1   
    88   83   88 1   
    89   84   90 1   
    90   84   91 1   
    91   84   92 1   
    92   85   89 1   
    93   93   94 1   
    94   93  101 1   
    95   94   95 1   
    96   94   97 1   
    97   94  102 1   
    98   95   96 2   
    99   95  112 1   
   100   97   98 1   
   101   97   99 1   
   102   97  103 1   
   103   98  100 1   
   104   98  104 1   
   105   98  105 1   
   106   99  106 1   
   107   99  107 1   
   108   99  108 1   
   109  100  109 1   
   110  100  110 1   
   111  100  111 1   
   112  112  113 1   
   113  112  119 1   
   114  113  114 1   
   115  113  116 1   
   116  113  120 1   
   117  114  115 2   
   118  114  126 1   
   119  116  117 1   
   120  116  118 1   
   121  116  121 1   
   122  117  123 1   
   123  117  124 1   
   124  117  125 1   
   125  118  122 1   
   126  126  127 1   
   127  126  133 1   
   128  127  128 1   
   129  127  130 1   
   130  127  134 1   
   131  128  129 2   
   132  128  140 1   
   133  130  131 1   
   134  130  132 1   
   135  130  135 1   
   136  131  137 1   
   137  131  138 1   
   138  131  139 1   
   139  132  136 1   
   140  140  141 1   
   141  140  149 1   
   142  141  142 1   
   143  141  144 1   
   144  141  150 1   
   145  142  143 2   
   146  142  162 1   
   147  144  145 1   
   148  144  151 1   
   149  144  152 1   
   150  145  146 1   
   151  145  153 1   
   152  145  154 1   
   153  146  147 1   
   154  146  155 1   
   155  146  156 1   
   156  147  148 1   
   157  147  157 1   
   158  147  158 1   
   159  148  159 1   
   160  148  160 1   
   161  148  161 1   
   162  162  163 1   
   163  162  171 1   
   164  163  164 1   
   165  163  166 1   
   166  163  172 1   
   167  164  165 2   
   168  164  177 1   
   169  166  167 1   
   170  166  173 1   
   171  166  174 1   
   172  167  168 1   
   173  167  175 1   
   174  167  176 1   
   175  168  169 1   
   176  168  170 1   
   177  177  178 1   
   178  177  182 1   
   179  178  179 1   
   180  178  180 1   
   181  178  181 1   
   182  184  185 1   
   183  184  186 1   
   184  187  188 1   
   185  187  189 1   
@<TRIPOS>SUBSTRUCTURE
     1 MOL         1 TEMP              0 ****  ****    0 ROOT
