@<TRIPOS>MOLECULE
MOL
  179   176     1     0     0
SMALL
resp


@<TRIPOS>ATOM
      1 C1          1.7880    3.6730    4.4010 c3        1 MOL     -0.367903
      2 C2          0.8630    3.1690    3.2440 c         1 MOL      0.646401
      3 O1          1.2810    3.1630    2.1290 o         1 MOL     -0.571081
      4 H1          1.1810    4.1530    5.1680 hc        1 MOL      0.103402
      5 H2          2.3220    2.8290    4.8360 hc        1 MOL      0.103402
      6 H3          2.5060    4.3920    4.0060 hc        1 MOL      0.103402
      7 N1         -0.3630    2.7590    3.5070 n         1 MOL     -0.551665
      8 C3         -1.3170    2.3350    2.5720 c3        1 MOL      0.256152
      9 C4         -2.0680    3.4620    1.8190 c         1 MOL      0.458019
     10 O2         -3.2220    3.7110    1.9710 o         1 MOL     -0.485547
     11 C5         -2.2430    1.2190    3.1830 c3        1 MOL     -0.250673
     12 C6         -3.0550    0.4680    2.0940 c         1 MOL      0.736479
     13 O3         -4.1890    0.1870    2.5120 o         1 MOL     -0.689719
     14 O4         -2.6360    0.1840    0.9560 o         1 MOL     -0.689719
     15 H4         -0.6420    2.7280    4.4740 hn        1 MOL      0.297724
     16 H5         -0.7800    1.7350    1.8390 h1        1 MOL      0.006058
     17 H6         -2.8940    1.6690    3.9300 hc        1 MOL      0.067710
     18 H7         -1.6000    0.4190    3.5500 hc        1 MOL      0.067710
     19 N2         -1.3320    4.3060    1.0800 n         1 MOL     -0.434934
     20 C7         -1.8110    5.6260    0.6090 c3        1 MOL      0.035928
     21 C8         -2.7370    5.6210   -0.5980 c         1 MOL      0.491063
     22 O5         -3.3120    6.6580   -0.8330 o         1 MOL     -0.546574
     23 C9         -0.6600    6.6970    0.6100 c3        1 MOL     -0.180171
     24 C10         0.3040    6.3390   -0.5550 c3        1 MOL      0.099795
     25 C11         1.4200    7.4270   -0.6690 c3        1 MOL      0.084201
     26 C12         2.2270    7.2870   -1.9040 c3        1 MOL      0.057740
     27 N3          2.8190    5.9350   -2.0750 n4        1 MOL     -0.378564
     28 H8         -0.3640    4.0140    1.0890 hn        1 MOL      0.296120
     29 H9         -2.4220    6.0610    1.3880 h1        1 MOL      0.123141
     30 H10        -0.0430    6.6750    1.5020 hc        1 MOL      0.066726
     31 H11        -1.1220    7.6750    0.4790 hc        1 MOL      0.066726
     32 H12        -0.2540    6.3240   -1.4900 hc        1 MOL     -0.020894
     33 H13         0.8090    5.3990   -0.3690 hc        1 MOL     -0.020894
     34 H14         2.0430    7.5210    0.2120 hc        1 MOL      0.011524
     35 H15         1.0260    8.4330   -0.8270 hc        1 MOL      0.011524
     36 H16         2.9600    8.0870   -1.9190 hx        1 MOL      0.062439
     37 H17         1.5630    7.5310   -2.7430 hx        1 MOL      0.062439
     38 H18         3.0670    5.5220   -1.1880 hn        1 MOL      0.332602
     39 H19         2.1960    5.3120   -2.5680 hn        1 MOL      0.332602
     40 H20         3.5210    6.0350   -2.7980 hn        1 MOL      0.332602
     41 N4         -2.9860    4.4920   -1.2440 n         1 MOL     -0.371894
     42 C13        -4.1040    4.2780   -2.1450 c3        1 MOL      0.242804
     43 C14        -5.2660    3.4650   -1.5030 c         1 MOL      0.345081
     44 O6         -6.3650    3.2760   -2.0200 o         1 MOL     -0.534505
     45 C15        -3.6360    3.5930   -3.4260 c3        1 MOL     -0.313910
     46 C16        -2.9740    2.2520   -3.1450 c         1 MOL      0.812443
     47 O7         -2.3870    1.7300   -4.0610 o         1 MOL     -0.698961
     48 O8         -3.0740    1.6480   -2.0650 o         1 MOL     -0.698961
     49 H21        -2.3530    3.7170   -1.0750 hn        1 MOL      0.223432
     50 H22        -4.5220    5.2420   -2.4330 h1        1 MOL      0.050238
     51 H23        -2.9180    4.2610   -3.8940 hc        1 MOL      0.067945
     52 H24        -4.5320    3.5320   -4.0400 hc        1 MOL      0.067945
     53 N5         -4.9700    2.9210   -0.3350 n         1 MOL     -0.003058
     54 C17        -5.9560    2.4090    0.5500 c3        1 MOL     -0.265986
     55 C18        -6.5380    1.0910    0.1570 c         1 MOL      0.656893
     56 O9         -7.6260    0.7530    0.6060 o         1 MOL     -0.605227
     57 H25        -3.9830    2.8640   -0.1290 hn        1 MOL     -0.017363
     58 H26        -6.7310    3.1810    0.5510 h1        1 MOL      0.125784
     59 H27        -5.3490    2.2480    1.4380 h1        1 MOL      0.125784
     60 N6         -5.8530    0.2570   -0.6240 n         1 MOL     -0.413329
     61 C19        -6.2710   -1.0760   -1.0710 c3        1 MOL      0.119889
     62 C20        -6.2910   -2.1690    0.0690 c         1 MOL      0.414852
     63 O10        -6.5950   -3.3130   -0.1620 o         1 MOL     -0.542755
     64 C21        -5.5050   -1.5380   -2.2680 c3        1 MOL     -0.357518
     65 C22        -4.2690   -2.4250   -1.8830 c         1 MOL      0.731108
     66 N7         -4.2170   -3.6190   -2.2840 n         1 MOL     -0.788599
     67 O11        -3.3830   -2.0570   -1.1430 o         1 MOL     -0.872042
     68 H28        -4.9380    0.6110   -0.8630 hn        1 MOL      0.257346
     69 H29        -7.3310   -1.0450   -1.3440 h1        1 MOL      0.102976
     70 H30        -5.0910   -0.6500   -2.7380 hc        1 MOL      0.123207
     71 H31        -6.1880   -2.1650   -2.8390 hc        1 MOL      0.123207
     72 H32        -5.0280   -3.9580   -2.7630 hn        1 MOL      0.381672
     73 H33        -3.5980   -4.2380   -1.7740 hn        1 MOL      0.381672
     74 N8         -5.8330   -1.8430    1.3220 n         1 MOL     -0.237901
     75 C23        -5.7810   -2.6570    2.5010 c3        1 MOL     -0.174309
     76 C24        -4.4360   -3.3630    2.7150 c         1 MOL      0.475904
     77 O12        -4.3380   -4.1130    3.6790 o         1 MOL     -0.561147
     78 H34        -5.4080   -0.9270    1.3930 hn        1 MOL      0.290641
     79 H35        -6.5150   -3.4480    2.3310 h1        1 MOL      0.124277
     80 H36        -6.1780   -2.1770    3.3920 h1        1 MOL      0.124277
     81 N9         -3.4130   -3.2760    1.8750 n         1 MOL     -0.197219
     82 C25        -2.0300   -3.7240    2.1530 c3        1 MOL     -0.112431
     83 C26        -0.9830   -2.7530    1.6620 c         1 MOL      0.606974
     84 O13        -1.1260   -2.1330    0.6310 o         1 MOL     -0.650986
     85 C27        -1.8240   -5.1040    1.6270 c3        1 MOL     -0.218875
     86 C28        -1.7840   -5.3350    0.1260 ca        1 MOL      0.208466
     87 C29        -0.5610   -5.3700   -0.5760 ca        1 MOL     -0.196612
     88 C30        -2.9330   -5.7890   -0.4830 ca        1 MOL     -0.196612
     89 C31        -0.5140   -5.8230   -1.8860 ca        1 MOL     -0.174165
     90 C32        -2.8500   -6.4810   -1.7110 ca        1 MOL     -0.174165
     91 C33        -1.6630   -6.4200   -2.4790 ca        1 MOL      0.182100
     92 O14        -1.6690   -7.0240   -3.6890 oh        1 MOL     -0.446197
     93 H37        -3.4800   -2.7640    1.0050 hn        1 MOL      0.313483
     94 H38        -1.8270   -3.8620    3.2220 h1        1 MOL      0.106834
     95 H39        -2.5970   -5.7330    2.0550 hc        1 MOL      0.089850
     96 H40        -0.8680   -5.5970    1.7960 hc        1 MOL      0.089850
     97 H41         0.3470   -5.0040   -0.1260 ha        1 MOL      0.148207
     98 H42        -3.8540   -5.7510    0.0790 ha        1 MOL      0.148207
     99 H43         0.4050   -5.6340   -2.4210 ha        1 MOL      0.129574
    100 H44        -3.7550   -6.8970   -2.1340 ha        1 MOL      0.129574
    101 H45        -0.8570   -6.8780   -4.1670 ho        1 MOL      0.362153
    102 N10         0.1680   -2.8400    2.3300 n         1 MOL     -0.428872
    103 C34         1.4830   -2.2160    2.0860 c3        1 MOL      0.015197
    104 C35         2.3450   -3.1180    1.1210 c         1 MOL      0.444881
    105 O15         2.6030   -4.2640    1.5740 o         1 MOL     -0.557360
    106 C36         2.2810   -2.0360    3.4440 c3        1 MOL      0.058183
    107 C37         1.4760   -1.2240    4.4760 c3        1 MOL      0.218806
    108 C38         3.6590   -1.2720    3.2350 c3        1 MOL     -0.122662
    109 C39         2.0420   -1.1910    5.8750 c3        1 MOL     -0.245968
    110 H46         0.0900   -3.3630    3.1850 hn        1 MOL      0.282128
    111 H47         1.4360   -1.2070    1.6760 h1        1 MOL      0.098237
    112 H48         2.4900   -3.0230    3.8380 hc        1 MOL      0.018310
    113 H49         0.5280   -1.7640    4.4560 hc        1 MOL     -0.064944
    114 H50         1.2100   -0.2020    4.1950 hc        1 MOL     -0.064944
    115 H51         3.4490   -0.2790    2.8330 hc        1 MOL      0.021360
    116 H52         4.1500   -1.1500    4.1980 hc        1 MOL      0.021360
    117 H53         4.4010   -1.8180    2.6550 hc        1 MOL      0.021360
    118 H54         2.3190   -2.1590    6.2960 hc        1 MOL      0.055872
    119 H55         2.9200   -0.5490    5.8370 hc        1 MOL      0.055872
    120 H56         1.2500   -0.7010    6.4600 hc        1 MOL      0.055872
    121 N11         2.7350   -2.6450   -0.0300 n         1 MOL     -0.247959
    122 C40         3.7740   -3.2020   -0.9140 c3        1 MOL     -0.095104
    123 C41         5.1690   -2.7710   -0.3840 c         1 MOL      0.492975
    124 O16         5.3470   -1.8590    0.4050 o         1 MOL     -0.375073
    125 C42         3.5670   -2.5700   -2.2870 c3        1 MOL     -0.056802
    126 O17         3.6440   -1.1500   -2.3050 oh        1 MOL     -0.504738
    127 H57         2.4590   -1.7020   -0.2640 hn        1 MOL      0.368097
    128 H58         3.7280   -4.2820   -1.0150 h1        1 MOL      0.098422
    129 H59         2.5680   -2.7770   -2.6840 h1        1 MOL      0.073067
    130 H60         4.3300   -2.9880   -2.9420 h1        1 MOL      0.073067
    131 H61         2.8900   -0.8780   -2.8300 ho        1 MOL      0.412701
    132 N12         6.2640   -3.2800   -0.9930 n         1 MOL     -0.493698
    133 C43         7.5850   -2.8380   -0.6030 c3        1 MOL      0.222441
    134 C44         7.8100   -1.2490   -0.9360 c         1 MOL      0.446013
    135 O18         8.4940   -0.5550   -0.1910 o         1 MOL     -0.496600
    136 C45         8.6200   -3.8120   -1.1450 c3        1 MOL     -0.302801
    137 H62         6.1680   -4.0410   -1.6480 hn        1 MOL      0.298952
    138 H63         7.6200   -2.8930    0.4910 h1        1 MOL      0.047609
    139 H64         8.7300   -3.6640   -2.2200 hc        1 MOL      0.089721
    140 H65         9.5010   -3.5890   -0.5450 hc        1 MOL      0.089721
    141 H66         8.2730   -4.8170   -0.9240 hc        1 MOL      0.089721
    142 N13         7.3940   -0.8390   -2.1400 n         1 MOL     -0.453846
    143 C46         7.3980    0.5730   -2.5730 c3        1 MOL      0.252277
    144 C47         6.6590    1.5320   -1.5980 c         1 MOL      0.323481
    145 O19         7.2470    2.5250   -1.2470 o         1 MOL     -0.511263
    146 C48         6.9050    0.6500   -3.9700 c3        1 MOL     -0.292607
    147 H67         6.8360   -1.5370   -2.6170 hn        1 MOL      0.281458
    148 H68         8.4200    0.9410   -2.6360 h1        1 MOL      0.064887
    149 H69         6.8980    1.6920   -4.2800 hc        1 MOL      0.069808
    150 H70         7.5000   -0.0360   -4.5740 hc        1 MOL      0.069808
    151 H71         5.8560    0.3510   -4.0140 hc        1 MOL      0.069808
    152 N14         5.5640    1.0570   -1.0220 n         1 MOL      0.028694
    153 C49         4.8360    1.7870    0.1160 c3        1 MOL     -0.464420
    154 C50         5.6460    1.9700    1.4020 c         1 MOL      0.597927
    155 O20         5.4950    2.9660    2.1170 o         1 MOL     -0.565258
    156 C51         3.4460    1.2200    0.3330 c3        1 MOL     -0.023941
    157 C52         2.3970    1.7680   -0.7080 c3        1 MOL      0.006798
    158 C53         1.0180    1.0670   -0.7330 c         1 MOL      0.642455
    159 O21         0.0000    1.7540   -1.0690 o         1 MOL     -0.786290
    160 O22         0.9150   -0.2180   -0.5410 o         1 MOL     -0.786290
    161 H72         5.1610    0.2080   -1.3870 hn        1 MOL      0.047664
    162 H73         4.6220    2.8130   -0.2050 h1        1 MOL      0.141183
    163 H74         3.0930    1.5710    1.3030 hc        1 MOL      0.093068
    164 H75         3.4500    0.1390    0.4520 hc        1 MOL      0.093068
    165 H76         2.8430    1.7340   -1.7010 hc        1 MOL     -0.014204
    166 H77         2.2490    2.8430   -0.6110 hc        1 MOL     -0.014204
    167 N15         6.4370    0.9540    1.7210 n         1 MOL     -0.059582
    168 C54         7.2450    1.0340    2.9420 c3        1 MOL     -0.295722
    169 H78         6.7300    1.6530    3.6780 h1        1 MOL      0.112511
    170 H79         7.3920    0.0330    3.3480 h1        1 MOL      0.112511
    171 H80         8.2130    1.4790    2.7100 h1        1 MOL      0.112511
    172 H81         6.3450    0.0790    1.2190 hn        1 MOL      0.122499
    173 Ca1        -1.4790   -0.2820   -1.2200 Ca        1 MOL      1.785246
    174 O23        -0.4630   -2.6070   -2.3150 oh        1 MOL     -0.806892
    175 H82        -0.8010   -3.2260   -1.6570 ho        1 MOL      0.389029
    176 H83        -0.9950   -2.7650   -3.0930 ho        1 MOL      0.389029
    177 O24        -1.6000   -0.7250   -3.9470 oh        1 MOL     -0.806892
    178 H84        -1.5470   -1.5150   -4.4830 ho        1 MOL      0.389029
    179 H85        -1.7640   -0.0210   -4.5750 ho        1 MOL      0.389029
@<TRIPOS>BOND
     1    1    2 1   
     2    1    4 1   
     3    1    5 1   
     4    1    6 1   
     5    2    3 2   
     6    2    7 1   
     7    7    8 1   
     8    7   15 1   
     9    8    9 1   
    10    8   11 1   
    11    8   16 1   
    12    9   10 2   
    13    9   19 1   
    14   11   12 1   
    15   11   17 1   
    16   11   18 1   
    17   12   13 1   
    18   12   14 1   
    19   19   20 1   
    20   19   28 1   
    21   20   21 1   
    22   20   23 1   
    23   20   29 1   
    24   21   22 2   
    25   21   41 1   
    26   23   24 1   
    27   23   30 1   
    28   23   31 1   
    29   24   25 1   
    30   24   32 1   
    31   24   33 1   
    32   25   26 1   
    33   25   34 1   
    34   25   35 1   
    35   26   27 1   
    36   26   36 1   
    37   26   37 1   
    38   27   38 1   
    39   27   39 1   
    40   27   40 1   
    41   41   42 1   
    42   41   49 1   
    43   42   43 1   
    44   42   45 1   
    45   42   50 1   
    46   43   44 2   
    47   43   53 1   
    48   45   46 1   
    49   45   51 1   
    50   45   52 1   
    51   46   47 1   
    52   46   48 1   
    53   53   54 1   
    54   53   57 1   
    55   54   55 1   
    56   54   58 1   
    57   54   59 1   
    58   55   56 2   
    59   55   60 1   
    60   60   61 1   
    61   60   68 1   
    62   61   62 1   
    63   61   64 1   
    64   61   69 1   
    65   62   63 2   
    66   62   74 1   
    67   64   65 1   
    68   64   70 1   
    69   64   71 1   
    70   65   66 1   
    71   65   67 2   
    72   66   72 1   
    73   66   73 1   
    74   74   75 1   
    75   74   78 1   
    76   75   76 1   
    77   75   79 1   
    78   75   80 1   
    79   76   77 2   
    80   76   81 1   
    81   81   82 1   
    82   81   93 1   
    83   82   83 1   
    84   82   85 1   
    85   82   94 1   
    86   83   84 2   
    87   83  102 1   
    88   85   86 1   
    89   85   95 1   
    90   85   96 1   
    91   86   87 ar  
    92   86   88 ar  
    93   87   89 ar  
    94   87   97 1   
    95   88   90 ar  
    96   88   98 1   
    97   89   91 ar  
    98   89   99 1   
    99   90   91 ar  
   100   90  100 1   
   101   91   92 1   
   102   92  101 1   
   103  102  103 1   
   104  102  110 1   
   105  103  104 1   
   106  103  106 1   
   107  103  111 1   
   108  104  105 2   
   109  104  121 1   
   110  106  107 1   
   111  106  108 1   
   112  106  112 1   
   113  107  109 1   
   114  107  113 1   
   115  107  114 1   
   116  108  115 1   
   117  108  116 1   
   118  108  117 1   
   119  109  118 1   
   120  109  119 1   
   121  109  120 1   
   122  121  122 1   
   123  121  127 1   
   124  122  123 1   
   125  122  125 1   
   126  122  128 1   
   127  123  124 2   
   128  123  132 1   
   129  125  126 1   
   130  125  129 1   
   131  125  130 1   
   132  126  131 1   
   133  132  133 1   
   134  132  137 1   
   135  133  134 1   
   136  133  136 1   
   137  133  138 1   
   138  134  135 2   
   139  134  142 1   
   140  136  139 1   
   141  136  140 1   
   142  136  141 1   
   143  142  143 1   
   144  142  147 1   
   145  143  144 1   
   146  143  146 1   
   147  143  148 1   
   148  144  145 2   
   149  144  152 1   
   150  146  149 1   
   151  146  150 1   
   152  146  151 1   
   153  152  153 1   
   154  152  161 1   
   155  153  154 1   
   156  153  156 1   
   157  153  162 1   
   158  154  155 2   
   159  154  167 1   
   160  156  157 1   
   161  156  163 1   
   162  156  164 1   
   163  157  158 1   
   164  157  165 1   
   165  157  166 1   
   166  158  159 1   
   167  158  160 1   
   168  167  168 1   
   169  167  172 1   
   170  168  169 1   
   171  168  170 1   
   172  168  171 1   
   173  174  175 1   
   174  174  176 1   
   175  177  178 1   
   176  177  179 1   
@<TRIPOS>SUBSTRUCTURE
     1 MOL         1 TEMP              0 ****  ****    0 ROOT
