@<TRIPOS>MOLECULE
MOL
  189   185     1     0     0
SMALL
resp


@<TRIPOS>ATOM
      1 C1         -0.1800    2.0490    6.4340 c3        1 MOL     -0.340304
      2 C2         -0.3920    1.8040    4.9250 c         1 MOL      0.695961
      3 O1          0.5230    1.9440    4.1220 o         1 MOL     -0.629033
      4 H1         -0.6080    1.2210    7.0000 hc        1 MOL      0.090761
      5 H2          0.8860    2.1200    6.6460 hc        1 MOL      0.090761
      6 H3         -0.6710    2.9780    6.7240 hc        1 MOL      0.090761
      7 N1         -1.6160    1.4030    4.4980 n         1 MOL     -0.555174
      8 C3         -1.9640    1.3920    3.0290 c3        1 MOL      0.187441
      9 C4         -2.3170    2.7660    2.5630 c         1 MOL      0.346177
     10 O2         -3.3030    3.4090    3.0100 o         1 MOL     -0.534490
     11 C5         -3.0310    0.3130    2.6710 c3        1 MOL     -0.474843
     12 C6         -3.7130    0.4900    1.3160 c         1 MOL      0.934102
     13 O3         -4.7150   -0.1920    1.2420 o         1 MOL     -0.697262
     14 O4         -3.1980    0.9750    0.2990 o         1 MOL     -0.697262
     15 H4         -2.3530    1.3480    5.1860 hn        1 MOL      0.317363
     16 H5         -1.0520    1.0520    2.5430 h1        1 MOL      0.065210
     17 H6         -3.9370    0.5010    3.2540 hc        1 MOL      0.115603
     18 H7         -2.7110   -0.7080    2.9120 hc        1 MOL      0.115603
     19 N2         -1.5680    3.3010    1.5690 n         1 MOL     -0.042581
     20 C7         -1.5680    4.7380    1.2130 c3        1 MOL     -0.199494
     21 C8         -2.6780    5.0870    0.1500 c         1 MOL      0.626942
     22 O5         -3.0110    6.1690   -0.1920 o         1 MOL     -0.549930
     23 C9         -0.1810    5.1940    0.8350 c3        1 MOL      0.014377
     24 C10         0.9380    5.2400    1.8420 c3        1 MOL      0.000256
     25 C11         2.3370    5.5900    1.2510 c3        1 MOL     -0.001115
     26 C12         3.3660    5.6340    2.3160 c3        1 MOL      0.122671
     27 N3          4.7700    5.6810    1.7460 n4        1 MOL     -0.471761
     28 H8         -0.9240    2.6330    1.1880 hn        1 MOL      0.113753
     29 H9         -1.9440    5.2100    2.1170 h1        1 MOL      0.110421
     30 H10        -0.2360    6.2300    0.5090 hc        1 MOL      0.025845
     31 H11         0.1960    4.6910   -0.0500 hc        1 MOL      0.025845
     32 H12         1.0980    4.2940    2.3570 hc        1 MOL      0.020010
     33 H13         0.7480    6.0210    2.5890 hc        1 MOL      0.020010
     34 H14         2.2150    6.5690    0.7920 hc        1 MOL      0.010383
     35 H15         2.6800    4.8070    0.5740 hc        1 MOL      0.010383
     36 H16         3.2360    4.7010    2.8640 hx        1 MOL      0.050566
     37 H17         3.1490    6.4010    3.0590 hx        1 MOL      0.050566
     38 H18         5.3980    5.6580    2.5340 hn        1 MOL      0.339030
     39 H19         4.9850    4.8090    1.2710 hn        1 MOL      0.339030
     40 H20         4.9350    6.5070    1.1890 hn        1 MOL      0.339030
     41 N4         -3.3460    3.9810   -0.3480 n         1 MOL     -0.415791
     42 C13        -4.3800    4.0980   -1.3790 c3        1 MOL      0.001367
     43 C14        -5.7800    3.6800   -0.9410 c         1 MOL      0.438973
     44 O6         -6.7500    4.2480   -1.3630 o         1 MOL     -0.545739
     45 C15        -4.0580    3.2810   -2.6140 c3        1 MOL      0.030391
     46 C16        -2.6520    3.0000   -2.8220 c         1 MOL      0.693239
     47 O7         -1.8540    3.8860   -3.3030 o         1 MOL     -0.687059
     48 O8         -2.1740    1.8990   -2.6330 o         1 MOL     -0.687059
     49 H21        -3.0000    3.0640   -0.1000 hn        1 MOL      0.199750
     50 H22        -4.4070    5.0990   -1.8030 h1        1 MOL      0.095553
     51 H23        -4.4410    3.8010   -3.4960 hc        1 MOL     -0.000632
     52 H24        -4.5390    2.3020   -2.5890 hc        1 MOL     -0.000632
     53 N5         -5.8420    2.5920   -0.2280 n         1 MOL     -0.063101
     54 C17        -7.1640    2.0530    0.1960 c3        1 MOL     -0.214095
     55 C18        -7.5670    0.9290   -0.8130 c         1 MOL      0.527996
     56 O9         -8.6940    0.9140   -1.3350 o         1 MOL     -0.550595
     57 H25        -4.9660    2.1260   -0.0270 hn        1 MOL      0.040620
     58 H26        -7.9330    2.8200    0.2810 h1        1 MOL      0.110782
     59 H27        -7.0110    1.5730    1.1590 h1        1 MOL      0.110782
     60 N6         -6.6760   -0.0410   -1.1610 n         1 MOL     -0.347781
     61 C19        -6.9490   -1.2530   -1.9230 c3        1 MOL      0.042154
     62 C20        -7.0440   -2.5290   -1.0890 c         1 MOL      0.466482
     63 O10        -7.4810   -3.5140   -1.6030 o         1 MOL     -0.542132
     64 C21        -5.8580   -1.3790   -3.0250 c3        1 MOL     -0.071557
     65 C22        -4.3910   -1.2390   -2.5740 c         1 MOL      0.673977
     66 O11        -3.5310   -0.6240   -3.2580 o         1 MOL     -0.758214
     67 O12        -4.0360   -1.7150   -1.4530 o         1 MOL     -0.758214
     68 H28        -5.7130    0.1180   -0.9080 hn        1 MOL      0.241710
     69 H29        -7.8590   -1.2090   -2.5260 h1        1 MOL      0.087220
     70 H30        -6.0070   -0.6390   -3.8070 hc        1 MOL      0.028697
     71 H31        -6.0500   -2.3440   -3.4850 hc        1 MOL      0.028697
     72 N7         -6.5950   -2.4410    0.1640 n         1 MOL     -0.333962
     73 C23        -6.6880   -3.5680    1.1440 c3        1 MOL     -0.058328
     74 C24        -5.3660   -4.2780    1.2750 c         1 MOL      0.489586
     75 O13        -5.3370   -5.3430    1.8990 o         1 MOL     -0.568753
     76 H32        -6.1270   -1.5890    0.4250 hn        1 MOL      0.234106
     77 H33        -7.4400   -4.2940    0.8390 h1        1 MOL      0.089824
     78 H34        -7.0220   -3.1520    2.0920 h1        1 MOL      0.089824
     79 N8         -4.2810   -3.7170    0.7090 n         1 MOL     -0.170419
     80 C25        -2.8590   -4.3540    0.8560 c3        1 MOL     -0.278261
     81 C26        -1.6730   -3.3880    0.9630 c         1 MOL      0.727998
     82 O14        -1.7780   -2.1960    0.6350 o         1 MOL     -0.642366
     83 C27        -2.5200   -5.2390   -0.3700 c3        1 MOL      0.340126
     84 C28        -3.4620   -6.4020   -0.7440 c3        1 MOL     -0.483767
     85 O15        -2.6170   -4.4170   -1.4660 oh        1 MOL     -0.606562
     86 H35        -4.3430   -2.7910    0.3080 hn        1 MOL      0.227397
     87 H36        -2.8300   -4.9300    1.7790 h1        1 MOL      0.109553
     88 H37        -1.4560   -5.4970   -0.3290 h1        1 MOL      0.062205
     89 H38        -3.5390   -4.2000   -1.6110 ho        1 MOL      0.404824
     90 H39        -4.4060   -5.9730   -1.0770 hc        1 MOL      0.138183
     91 H40        -2.9030   -6.9950   -1.4670 hc        1 MOL      0.138183
     92 H41        -3.6020   -7.0390    0.1250 hc        1 MOL      0.138183
     93 N9         -0.5530   -3.9780    1.4240 n         1 MOL     -0.554300
     94 C29         0.7580   -3.3800    1.6270 c3        1 MOL      0.063462
     95 C30         1.6670   -3.9010    0.5080 c         1 MOL      0.493613
     96 O16         1.8870   -5.0810    0.3570 o         1 MOL     -0.560091
     97 C31         1.3250   -3.5420    3.0680 c3        1 MOL      0.027336
     98 C32         0.3860   -2.6380    3.9830 c3        1 MOL     -0.038837
     99 C33         2.7300   -3.1840    3.2550 c3        1 MOL     -0.264525
    100 C34         0.8210   -2.5050    5.4480 c3        1 MOL     -0.359703
    101 H42        -0.7380   -4.9040    1.7730 hn        1 MOL      0.279482
    102 H43         0.5820   -2.3400    1.3650 h1        1 MOL      0.064635
    103 H44         1.1850   -4.6020    3.2880 hc        1 MOL      0.047962
    104 H45        -0.6510   -2.9420    3.9580 hc        1 MOL      0.078855
    105 H46         0.3920   -1.6430    3.5430 hc        1 MOL      0.078855
    106 H47         3.0000   -3.6190    4.2150 hc        1 MOL      0.069955
    107 H48         3.4110   -3.5790    2.4940 hc        1 MOL      0.069955
    108 H49         2.8210   -2.1060    3.3830 hc        1 MOL      0.069955
    109 H50         0.9260   -3.4480    5.9960 hc        1 MOL      0.098169
    110 H51         1.8300   -2.1270    5.6030 hc        1 MOL      0.098169
    111 H52         0.0660   -1.9040    5.9530 hc        1 MOL      0.098169
    112 N10         2.2890   -2.9530   -0.2270 n         1 MOL     -0.049594
    113 C35         3.3900   -3.0680   -1.2660 c3        1 MOL     -0.068561
    114 C36         4.7330   -2.5630   -0.6890 c         1 MOL      0.239238
    115 O17         4.8730   -2.1700    0.4620 o         1 MOL     -0.296284
    116 C37         2.9450   -2.2880   -2.5300 c3        1 MOL      0.221787
    117 C38         1.8480   -2.9090   -3.3820 c3        1 MOL     -0.559784
    118 O18         2.5710   -0.9390   -2.2220 oh        1 MOL     -0.471862
    119 H53         1.8470   -2.0520   -0.2050 hn        1 MOL      0.086852
    120 H54         3.4000   -4.1210   -1.5620 h1        1 MOL      0.089689
    121 H55         3.8100   -1.9870   -3.1130 h1        1 MOL      0.018049
    122 H56         1.7350   -1.0230   -1.7500 ho        1 MOL      0.233097
    123 H57         1.4790   -2.1090   -4.0300 hc        1 MOL      0.162655
    124 H58         2.3230   -3.6440   -4.0290 hc        1 MOL      0.162655
    125 H59         1.0730   -3.4300   -2.8140 hc        1 MOL      0.162655
    126 N11         5.7780   -2.5560   -1.5700 n         1 MOL     -0.105858
    127 C39         7.1260   -2.2100   -1.1090 c3        1 MOL     -0.402011
    128 C40         7.3150   -0.6340   -1.0420 c         1 MOL      0.562646
    129 O19         8.3750   -0.1830   -0.5750 o         1 MOL     -0.536343
    130 C41         8.2800   -2.7730   -2.0450 c3        1 MOL      0.462584
    131 C42         8.5530   -4.2740   -1.8460 c3        1 MOL     -0.333964
    132 O20         8.0480   -2.4590   -3.3980 oh        1 MOL     -0.660599
    133 H60         5.6960   -2.9150   -2.5110 hn        1 MOL      0.242464
    134 H61         7.1890   -2.5410   -0.0720 h1        1 MOL      0.189536
    135 H62         9.2090   -2.2760   -1.7850 h1        1 MOL      0.005742
    136 H63         8.8570   -2.6400   -3.8720 ho        1 MOL      0.412652
    137 H64         7.5680   -4.7540   -1.7900 hc        1 MOL      0.088829
    138 H65         9.1050   -4.6950   -2.6760 hc        1 MOL      0.088829
    139 H66         9.2450   -4.3700   -1.0120 hc        1 MOL      0.088829
    140 N12         6.3310    0.2230   -1.3260 n         1 MOL     -0.337851
    141 C43         6.2040    1.6530   -0.9630 c3        1 MOL      0.032380
    142 C44         5.4050    1.9130    0.3330 c         1 MOL      0.337402
    143 O21         4.9300    3.0780    0.5820 o         1 MOL     -0.600110
    144 C45         5.7410    2.5010   -2.2370 c3        1 MOL     -0.106443
    145 C46         4.2800    2.3200   -2.6170 c3        1 MOL     -0.091048
    146 C47         3.9400    3.0630   -3.8690 c3        1 MOL      0.022261
    147 C48         4.9090    2.9340   -5.0470 c3        1 MOL     -0.019438
    148 N13         4.2660    3.5660   -6.2110 n4        1 MOL     -0.274601
    149 H67         5.4220   -0.1930   -1.5100 hn        1 MOL      0.194162
    150 H68         7.1860    2.0460   -0.6990 h1        1 MOL      0.109130
    151 H69         6.3410    2.0660   -3.0300 hc        1 MOL      0.046841
    152 H70         5.9830    3.5590   -2.1500 hc        1 MOL      0.046841
    153 H71         3.7060    2.7990   -1.8290 hc        1 MOL      0.079235
    154 H72         4.0290    1.2730   -2.7950 hc        1 MOL      0.079235
    155 H73         3.8450    4.0840   -3.5150 hc        1 MOL      0.036880
    156 H74         2.8860    2.8100   -4.0360 hc        1 MOL      0.036880
    157 H75         5.0510    1.8980   -5.3550 hx        1 MOL      0.088996
    158 H76         5.8620    3.3940   -4.7750 hx        1 MOL      0.088996
    159 H77         3.3410    3.1770   -6.3050 hn        1 MOL      0.260591
    160 H78         4.1600    4.5590   -6.1220 hn        1 MOL      0.260591
    161 H79         4.8020    3.3350   -7.0260 hn        1 MOL      0.260591
    162 N14         5.1390    0.9480    1.1650 n         1 MOL     -0.010005
    163 C49         4.2250    0.9250    2.2240 c3        1 MOL     -0.314989
    164 C50         4.9120    0.0880    3.3270 c         1 MOL      0.516477
    165 O22         4.8640    0.4670    4.4530 o         1 MOL     -0.529468
    166 C51         2.7710    0.3150    1.6600 c3        1 MOL      0.151544
    167 C52         2.1150    1.1570    0.4710 c3        1 MOL     -0.018696
    168 C53         0.8160    0.5870   -0.0720 c         1 MOL      0.490256
    169 O23         0.7250   -0.6110   -0.3150 o         1 MOL     -0.598411
    170 O24        -0.1030    1.4100   -0.2780 o         1 MOL     -0.598411
    171 H80         5.6670    0.0900    1.0650 hn        1 MOL      0.083447
    172 H81         4.0550    1.9360    2.6090 h1        1 MOL      0.168697
    173 H82         2.0450    0.2800    2.4710 hc        1 MOL      0.037722
    174 H83         3.0140   -0.6870    1.3260 hc        1 MOL      0.037722
    175 H84         2.7260    1.1490   -0.4280 hc        1 MOL      0.017179
    176 H85         1.9520    2.1480    0.9050 hc        1 MOL      0.017179
    177 N15         5.5900   -0.9080    2.9290 n         1 MOL     -0.241267
    178 C54         6.1140   -1.9340    3.8330 c3        1 MOL     -0.232031
    179 H86         5.3970   -2.1140    4.6330 h1        1 MOL      0.109640
    180 H87         6.2780   -2.8580    3.2780 h1        1 MOL      0.109640
    181 H88         7.0570   -1.5950    4.2610 h1        1 MOL      0.109640
    182 H89         5.4870   -1.1270    1.9400 hn        1 MOL      0.217800
    183 Ca1        -1.7830   -0.2480   -1.4230 Ca        1 MOL      1.731500
    184 O25        -1.2410   -2.4970   -2.7380 oh        1 MOL     -0.747665
    185 H90        -0.8970   -2.7930   -3.5700 ho        1 MOL      0.373656
    186 H91        -1.8220   -3.2010   -2.4540 ho        1 MOL      0.373656
    187 O26         0.1810    0.3220   -3.0830 oh        1 MOL     -0.747665
    188 H92         0.5470    1.1510   -2.8060 ho        1 MOL      0.373656
    189 H93         0.5720    0.1530   -3.9360 ho        1 MOL      0.373656
@<TRIPOS>BOND
     1    1    2 1   
     2    1    4 1   
     3    1    5 1   
     4    1    6 1   
     5    2    3 2   
     6    2    7 1   
     7    7    8 1   
     8    7   15 1   
     9    8    9 1   
    10    8   11 1   
    11    8   16 1   
    12    9   10 2   
    13    9   19 1   
    14   11   12 1   
    15   11   17 1   
    16   11   18 1   
    17   12   13 1   
    18   12   14 1   
    19   19   20 1   
    20   19   28 1   
    21   20   21 1   
    22   20   23 1   
    23   20   29 1   
    24   21   22 2   
    25   21   41 1   
    26   23   24 1   
    27   23   30 1   
    28   23   31 1   
    29   24   25 1   
    30   24   32 1   
    31   24   33 1   
    32   25   26 1   
    33   25   34 1   
    34   25   35 1   
    35   26   27 1   
    36   26   36 1   
    37   26   37 1   
    38   27   38 1   
    39   27   39 1   
    40   27   40 1   
    41   41   42 1   
    42   41   49 1   
    43   42   43 1   
    44   42   45 1   
    45   42   50 1   
    46   43   44 2   
    47   43   53 1   
    48   45   46 1   
    49   45   51 1   
    50   45   52 1   
    51   46   47 1   
    52   46   48 1   
    53   53   54 1   
    54   53   57 1   
    55   54   55 1   
    56   54   58 1   
    57   54   59 1   
    58   55   56 2   
    59   55   60 1   
    60   60   61 1   
    61   60   68 1   
    62   61   62 1   
    63   61   64 1   
    64   61   69 1   
    65   62   63 2   
    66   62   72 1   
    67   64   65 1   
    68   64   70 1   
    69   64   71 1   
    70   65   66 1   
    71   65   67 1   
    72   72   73 1   
    73   72   76 1   
    74   73   74 1   
    75   73   77 1   
    76   73   78 1   
    77   74   75 2   
    78   74   79 1   
    79   79   80 1   
    80   79   86 1   
    81   80   81 1   
    82   80   83 1   
    83   80   87 1   
    84   81   82 2   
    85   81   93 1   
    86   83   84 1   
    87   83   85 1   
    88   83   88 1   
    89   84   90 1   
    90   84   91 1   
    91   84   92 1   
    92   85   89 1   
    93   93   94 1   
    94   93  101 1   
    95   94   95 1   
    96   94   97 1   
    97   94  102 1   
    98   95   96 2   
    99   95  112 1   
   100   97   98 1   
   101   97   99 1   
   102   97  103 1   
   103   98  100 1   
   104   98  104 1   
   105   98  105 1   
   106   99  106 1   
   107   99  107 1   
   108   99  108 1   
   109  100  109 1   
   110  100  110 1   
   111  100  111 1   
   112  112  113 1   
   113  112  119 1   
   114  113  114 1   
   115  113  116 1   
   116  113  120 1   
   117  114  115 2   
   118  114  126 1   
   119  116  117 1   
   120  116  118 1   
   121  116  121 1   
   122  117  123 1   
   123  117  124 1   
   124  117  125 1   
   125  118  122 1   
   126  126  127 1   
   127  126  133 1   
   128  127  128 1   
   129  127  130 1   
   130  127  134 1   
   131  128  129 2   
   132  128  140 1   
   133  130  131 1   
   134  130  132 1   
   135  130  135 1   
   136  131  137 1   
   137  131  138 1   
   138  131  139 1   
   139  132  136 1   
   140  140  141 1   
   141  140  149 1   
   142  141  142 1   
   143  141  144 1   
   144  141  150 1   
   145  142  143 2   
   146  142  162 1   
   147  144  145 1   
   148  144  151 1   
   149  144  152 1   
   150  145  146 1   
   151  145  153 1   
   152  145  154 1   
   153  146  147 1   
   154  146  155 1   
   155  146  156 1   
   156  147  148 1   
   157  147  157 1   
   158  147  158 1   
   159  148  159 1   
   160  148  160 1   
   161  148  161 1   
   162  162  163 1   
   163  162  171 1   
   164  163  164 1   
   165  163  166 1   
   166  163  172 1   
   167  164  165 2   
   168  164  177 1   
   169  166  167 1   
   170  166  173 1   
   171  166  174 1   
   172  167  168 1   
   173  167  175 1   
   174  167  176 1   
   175  168  169 1   
   176  168  170 1   
   177  177  178 1   
   178  177  182 1   
   179  178  179 1   
   180  178  180 1   
   181  178  181 1   
   182  184  185 1   
   183  184  186 1   
   184  187  188 1   
   185  187  189 1   
@<TRIPOS>SUBSTRUCTURE
     1 MOL         1 TEMP              0 ****  ****    0 ROOT
