@<TRIPOS>MOLECULE
MOL
  189   185     1     0     0
SMALL
resp


@<TRIPOS>ATOM
      1 C1         -0.6460    1.6970    6.5790 c3        1 MOL     -0.191590
      2 C2         -0.7460    1.4770    5.0550 c         1 MOL      0.760843
      3 O1          0.2130    1.6950    4.3230 o         1 MOL     -0.623378
      4 H1         -1.5310    2.2280    6.9270 hc        1 MOL      0.048595
      5 H2         -0.5800    0.7330    7.0820 hc        1 MOL      0.048595
      6 H3          0.2430    2.2870    6.8040 hc        1 MOL      0.048595
      7 N1         -1.9280    1.1060    4.4500 n         1 MOL     -0.652049
      8 C3         -2.2230    1.2770    3.0080 c3        1 MOL      0.247031
      9 C4         -2.3720    2.7510    2.5960 c         1 MOL      0.499421
     10 O2         -3.1590    3.4530    3.2130 o         1 MOL     -0.547479
     11 C5         -3.4660    0.4920    2.7890 c3        1 MOL     -0.208913
     12 C6         -4.1830    0.5480    1.4150 c         1 MOL      0.804743
     13 O3         -5.2290   -0.1570    1.3800 o         1 MOL     -0.680604
     14 O4         -3.7260    1.1940    0.4870 o         1 MOL     -0.680604
     15 H4         -2.6870    0.8130    5.0570 hn        1 MOL      0.322445
     16 H5         -1.4870    0.7350    2.4230 h1        1 MOL     -0.058849
     17 H6         -4.1210    0.8850    3.5720 hc        1 MOL      0.021906
     18 H7         -3.2290   -0.5540    2.9880 hc        1 MOL      0.021906
     19 N2         -1.5540    3.3280    1.6350 n         1 MOL     -0.073475
     20 C7         -1.3210    4.8330    1.4780 c3        1 MOL     -0.298821
     21 C8         -2.4230    5.4130    0.5040 c         1 MOL      0.689170
     22 O5         -2.6890    6.6210    0.6030 o         1 MOL     -0.598030
     23 C9          0.1570    5.1430    1.0120 c3        1 MOL     -0.063667
     24 C10         0.3990    4.6930   -0.4400 c3        1 MOL      0.051807
     25 C11         1.8890    4.8140   -0.7790 c3        1 MOL     -0.059346
     26 C12         2.2310    4.0150   -2.0420 c3        1 MOL     -0.003033
     27 N3          3.7430    3.9290   -2.1590 n4        1 MOL     -0.390052
     28 H8         -0.9210    2.6680    1.2140 hn        1 MOL      0.125744
     29 H9         -1.4470    5.2640    2.4770 h1        1 MOL      0.147279
     30 H10         0.8720    4.6340    1.6590 hc        1 MOL      0.060315
     31 H11         0.3220    6.2240    1.0270 hc        1 MOL      0.060315
     32 H12        -0.1630    5.3150   -1.1250 hc        1 MOL      0.037009
     33 H13         0.1580    3.6390   -0.5570 hc        1 MOL      0.037009
     34 H14         2.5560    4.4970    0.0170 hc        1 MOL      0.036219
     35 H15         2.1040    5.8710   -0.8860 hc        1 MOL      0.036219
     36 H16         1.8070    4.3370   -2.9920 hx        1 MOL      0.104653
     37 H17         1.9940    2.9540   -1.9790 hx        1 MOL      0.104653
     38 H18         4.1550    4.8190   -2.4220 hn        1 MOL      0.315883
     39 H19         4.1540    3.6640   -1.2690 hn        1 MOL      0.315883
     40 H20         4.0420    3.2350   -2.8310 hn        1 MOL      0.315883
     41 N4         -3.1010    4.5710   -0.2410 n         1 MOL     -0.562007
     42 C13        -4.0790    4.8950   -1.3360 c3        1 MOL      0.213112
     43 C14        -5.4720    4.2010   -1.1430 c         1 MOL      0.424251
     44 O6         -6.4190    4.7600   -1.7430 o         1 MOL     -0.532935
     45 C15        -3.4010    4.6160   -2.6900 c3        1 MOL     -0.319635
     46 C16        -2.6480    3.3250   -2.8670 c         1 MOL      0.871577
     47 O7         -2.8010    2.4140   -2.0740 o         1 MOL     -0.767728
     48 O8         -1.7040    3.2240   -3.7300 o         1 MOL     -0.767728
     49 H21        -2.7050    3.6470   -0.1030 hn        1 MOL      0.208917
     50 H22        -4.3010    5.9550   -1.3710 h1        1 MOL      0.071261
     51 H23        -2.7060    5.4300   -2.8480 hc        1 MOL      0.082259
     52 H24        -4.1440    4.6940   -3.4820 hc        1 MOL      0.082259
     53 N5         -5.5770    3.1560   -0.3270 n         1 MOL     -0.034003
     54 C17        -6.8200    2.5990    0.1540 c3        1 MOL     -0.346910
     55 C18        -7.4540    1.5340   -0.7240 c         1 MOL      0.785608
     56 O9         -8.4600    1.9220   -1.3710 o         1 MOL     -0.562571
     57 H25        -4.7420    2.6250   -0.1260 hn        1 MOL      0.120272
     58 H26        -7.4800    3.4550    0.2600 h1        1 MOL      0.127366
     59 H27        -6.6470    2.1690    1.1330 h1        1 MOL      0.127366
     60 N6         -7.1030    0.2460   -0.7200 n         1 MOL     -0.636567
     61 C19        -7.5400   -0.7970   -1.6840 c3        1 MOL      0.091380
     62 C20        -7.5760   -2.2380   -1.0550 c         1 MOL      0.342589
     63 O10        -8.0450   -3.2090   -1.6520 o         1 MOL     -0.507698
     64 C21        -6.5710   -0.7860   -2.8950 c3        1 MOL     -0.194570
     65 C22        -5.0910   -0.6500   -2.4650 c         1 MOL      0.706162
     66 O11        -4.6470   -1.4790   -1.6410 o         1 MOL     -0.691780
     67 O12        -4.3160    0.1120   -3.0460 o         1 MOL     -0.691780
     68 H28        -6.2310    0.0530   -0.2590 hn        1 MOL      0.265482
     69 H29        -8.5020   -0.4970   -2.0800 h1        1 MOL      0.103826
     70 H30        -6.7140    0.0890   -3.5220 hc        1 MOL      0.071555
     71 H31        -6.8360   -1.6500   -3.5050 hc        1 MOL      0.071555
     72 N7         -7.1270   -2.4490    0.1900 n         1 MOL     -0.088002
     73 C23        -7.0740   -3.6930    0.8580 c3        1 MOL     -0.283423
     74 C24        -5.8250   -4.3970    0.6430 c         1 MOL      0.642962
     75 O13        -5.7500   -5.5820    0.9050 o         1 MOL     -0.567987
     76 H32        -6.8990   -1.6210    0.7290 hn        1 MOL      0.218529
     77 H33        -7.8320   -4.4250    0.5710 h1        1 MOL      0.121451
     78 H34        -7.0550   -3.4560    1.9160 h1        1 MOL      0.121451
     79 N8         -4.6870   -3.6710    0.2460 n         1 MOL     -0.373107
     80 C25        -3.4230   -4.3080   -0.0690 c3        1 MOL     -0.103719
     81 C26        -2.3050   -3.3580    0.3760 c         1 MOL      0.545212
     82 O14        -2.4360   -2.1020    0.4150 o         1 MOL     -0.615791
     83 C27        -3.2920   -4.9380   -1.4430 c3        1 MOL      0.476214
     84 C28        -4.1060   -6.1680   -1.6830 c3        1 MOL     -0.576892
     85 O15        -3.5200   -4.0200   -2.5190 oh        1 MOL     -0.627766
     86 H35        -4.8160   -2.6670    0.1900 hn        1 MOL      0.244290
     87 H36        -3.3130   -5.2060    0.5440 h1        1 MOL      0.083793
     88 H37        -2.2630   -5.2510   -1.5760 h1        1 MOL     -0.002868
     89 H38        -4.1660   -3.3750   -2.2260 ho        1 MOL      0.396670
     90 H39        -5.1800   -6.0100   -1.6410 hc        1 MOL      0.155513
     91 H40        -3.8830   -6.4530   -2.7160 hc        1 MOL      0.155513
     92 H41        -3.8480   -6.9260   -0.9410 hc        1 MOL      0.155513
     93 N9         -1.1300   -3.9630    0.6860 n         1 MOL     -0.566217
     94 C29         0.0680   -3.2570    1.0830 c3        1 MOL      0.019752
     95 C30         1.2260   -3.7600    0.1980 c         1 MOL      0.597429
     96 O16         1.5330   -4.9200    0.0890 o         1 MOL     -0.560628
     97 C31         0.2970   -3.3410    2.6290 c3        1 MOL      0.065397
     98 C32        -0.7960   -2.4310    3.2590 c3        1 MOL      0.121710
     99 C33         1.6610   -3.1670    3.2890 c3        1 MOL     -0.286877
    100 C34        -0.5870   -2.2350    4.7380 c3        1 MOL     -0.331774
    101 H42        -1.0470   -4.9700    0.6960 hn        1 MOL      0.312822
    102 H43        -0.0920   -2.2020    0.8600 h1        1 MOL      0.033695
    103 H44         0.0230   -4.3790    2.8080 hc        1 MOL      0.016062
    104 H45        -1.7590   -2.9260    3.1250 hc        1 MOL      0.055336
    105 H46        -0.6980   -1.4690    2.7540 hc        1 MOL      0.055336
    106 H47         1.6020   -3.6600    4.2570 hc        1 MOL      0.067641
    107 H48         2.4040   -3.6840    2.6800 hc        1 MOL      0.067641
    108 H49         1.8820   -2.1010    3.3960 hc        1 MOL      0.067641
    109 H50        -0.3110   -3.2300    5.0910 hc        1 MOL      0.075165
    110 H51         0.2170   -1.5390    4.9480 hc        1 MOL      0.075165
    111 H52        -1.4760   -1.9390    5.2790 hc        1 MOL      0.075165
    112 N10         1.8470   -2.7890   -0.4660 n         1 MOL     -0.462265
    113 C35         2.9870   -2.8830   -1.3990 c3        1 MOL      0.011541
    114 C36         4.3530   -2.6370   -0.7700 c         1 MOL      0.588327
    115 O17         4.4310   -2.3250    0.3620 o         1 MOL     -0.446072
    116 C37         2.7580   -1.8670   -2.5380 c3        1 MOL      0.302990
    117 C38         1.5870   -2.2580   -3.4320 c3        1 MOL     -0.456418
    118 O18         2.7220   -0.4610   -2.1310 oh        1 MOL     -0.677115
    119 H53         1.4810   -1.8560   -0.2890 hn        1 MOL      0.349892
    120 H54         2.9990   -3.8700   -1.8700 h1        1 MOL      0.074860
    121 H55         3.6610   -1.9390   -3.1420 h1        1 MOL     -0.038507
    122 H56         1.8480   -0.3600   -1.7430 ho        1 MOL      0.478969
    123 H57         1.3760   -3.3220   -3.3810 hc        1 MOL      0.126981
    124 H58         0.8000   -1.5750   -3.0990 hc        1 MOL      0.126981
    125 H59         1.8590   -2.2040   -4.4830 hc        1 MOL      0.126981
    126 N11         5.4480   -2.9420   -1.4570 n         1 MOL     -0.472062
    127 C39         6.8500   -2.8130   -0.9890 c3        1 MOL      0.121420
    128 C40         7.1430   -1.5390   -0.2100 c         1 MOL      0.159246
    129 O19         7.5930   -1.6930    0.9340 o         1 MOL     -0.447297
    130 C41         7.8180   -2.9340   -2.1330 c3        1 MOL      0.280998
    131 C42         9.3080   -2.9450   -1.8110 c3        1 MOL     -0.310409
    132 O20         7.4690   -4.1740   -2.8570 oh        1 MOL     -0.573704
    133 H60         5.3340   -3.4240   -2.3330 hn        1 MOL      0.237117
    134 H61         7.0510   -3.7070   -0.3840 h1        1 MOL      0.126460
    135 H62         7.6240   -2.0890   -2.7960 h1        1 MOL     -0.036023
    136 H63         7.9150   -4.0400   -3.6900 ho        1 MOL      0.382365
    137 H64         9.4780   -1.9480   -1.3920 hc        1 MOL      0.092769
    138 H65         9.6000   -3.7010   -1.0800 hc        1 MOL      0.092769
    139 H66         9.8850   -3.0980   -2.7250 hc        1 MOL      0.092769
    140 N12         6.7840   -0.3320   -0.6330 n         1 MOL     -0.138577
    141 C43         7.1670    0.8530    0.2300 c3        1 MOL      0.067393
    142 C44         6.0690    1.1450    1.2330 c         1 MOL      0.313000
    143 O21         6.4220    1.9050    2.1280 o         1 MOL     -0.523929
    144 C45         7.6520    2.0260   -0.7150 c3        1 MOL     -0.138546
    145 C46         9.0910    1.5450   -1.1370 c3        1 MOL      0.055241
    146 C47         9.7750    2.6990   -1.8480 c3        1 MOL     -0.160022
    147 C48        11.0730    2.1790   -2.3760 c3        1 MOL      0.114169
    148 N13        12.0280    3.2200   -2.7790 n4        1 MOL     -0.192274
    149 H67         6.5400   -0.1870   -1.6020 hn        1 MOL      0.214577
    150 H68         8.0610    0.6640    0.8200 h1        1 MOL      0.108376
    151 H69         7.7170    2.9470   -0.1290 hc        1 MOL      0.040644
    152 H70         7.0370    2.2010   -1.5960 hc        1 MOL      0.040644
    153 H71         8.9970    0.7270   -1.8450 hc        1 MOL      0.038378
    154 H72         9.7070    1.3100   -0.2690 hc        1 MOL      0.038378
    155 H73         9.9480    3.5410   -1.1790 hc        1 MOL      0.062291
    156 H74         9.2020    3.2620   -2.5900 hc        1 MOL      0.062291
    157 H75        10.7820    1.5090   -3.1770 hx        1 MOL      0.034175
    158 H76        11.5160    1.5410   -1.6060 hx        1 MOL      0.034175
    159 H77        12.2150    3.8300   -2.0000 hn        1 MOL      0.242882
    160 H78        12.9140    2.8330   -3.0650 hn        1 MOL      0.242882
    161 H79        11.6570    3.7990   -3.5140 hn        1 MOL      0.242882
    162 N14         4.9050    0.5950    1.1540 n         1 MOL     -0.145397
    163 C49         3.9120    0.8110    2.3050 c3        1 MOL     -0.197416
    164 C50         4.2530   -0.1740    3.5060 c         1 MOL      0.479526
    165 O22         3.5910    0.0590    4.5530 o         1 MOL     -0.516917
    166 C51         2.4310    0.3540    1.9240 c3        1 MOL      0.321131
    167 C52         1.7960    1.2440    0.8760 c3        1 MOL     -0.230807
    168 C53         0.5430    0.6840    0.1690 c         1 MOL      0.790310
    169 O23         0.5770   -0.3600   -0.5070 o         1 MOL     -0.765560
    170 O24        -0.5430    1.3350    0.2750 o         1 MOL     -0.765560
    171 H80         4.7260    0.0470    0.3250 hn        1 MOL      0.072731
    172 H81         3.9400    1.8300    2.6820 h1        1 MOL      0.154147
    173 H82         1.9050    0.5200    2.8750 hc        1 MOL      0.010628
    174 H83         2.3810   -0.6670    1.5670 hc        1 MOL      0.010628
    175 H84         2.4830    1.4450    0.0540 hc        1 MOL     -0.003158
    176 H85         1.4970    2.2210    1.2530 hc        1 MOL     -0.003158
    177 N15         5.1430   -1.1360    3.2820 n         1 MOL     -0.199047
    178 C54         5.6630   -2.0320    4.3210 c3        1 MOL     -0.333592
    179 H86         6.7070   -2.2640    4.1110 h1        1 MOL      0.136630
    180 H87         5.5890   -1.5430    5.2930 h1        1 MOL      0.136630
    181 H88         5.0810   -2.9530    4.3320 h1        1 MOL      0.136630
    182 H89         5.5120   -1.1620    2.3420 hn        1 MOL      0.247160
    183 Ca1        -2.3250   -0.0050   -1.2470 Ca        1 MOL      1.805498
    184 O25        -1.9740   -1.9400   -3.0470 oh        1 MOL     -0.856120
    185 H90        -1.5020   -1.8480   -3.8800 ho        1 MOL      0.399370
    186 H91        -2.3630   -2.8120   -3.0930 ho        1 MOL      0.399370
    187 O26        -0.2780    1.0950   -2.8290 oh        1 MOL     -0.856120
    188 H92         0.4530    1.2820   -3.4170 ho        1 MOL      0.399370
    189 H93        -0.8420    1.8720   -2.8830 ho        1 MOL      0.399370
@<TRIPOS>BOND
     1    1    2 1   
     2    1    4 1   
     3    1    5 1   
     4    1    6 1   
     5    2    3 2   
     6    2    7 1   
     7    7    8 1   
     8    7   15 1   
     9    8    9 1   
    10    8   11 1   
    11    8   16 1   
    12    9   10 2   
    13    9   19 1   
    14   11   12 1   
    15   11   17 1   
    16   11   18 1   
    17   12   13 1   
    18   12   14 1   
    19   19   20 1   
    20   19   28 1   
    21   20   21 1   
    22   20   23 1   
    23   20   29 1   
    24   21   22 2   
    25   21   41 1   
    26   23   24 1   
    27   23   30 1   
    28   23   31 1   
    29   24   25 1   
    30   24   32 1   
    31   24   33 1   
    32   25   26 1   
    33   25   34 1   
    34   25   35 1   
    35   26   27 1   
    36   26   36 1   
    37   26   37 1   
    38   27   38 1   
    39   27   39 1   
    40   27   40 1   
    41   41   42 1   
    42   41   49 1   
    43   42   43 1   
    44   42   45 1   
    45   42   50 1   
    46   43   44 2   
    47   43   53 1   
    48   45   46 1   
    49   45   51 1   
    50   45   52 1   
    51   46   47 1   
    52   46   48 1   
    53   53   54 1   
    54   53   57 1   
    55   54   55 1   
    56   54   58 1   
    57   54   59 1   
    58   55   56 2   
    59   55   60 1   
    60   60   61 1   
    61   60   68 1   
    62   61   62 1   
    63   61   64 1   
    64   61   69 1   
    65   62   63 2   
    66   62   72 1   
    67   64   65 1   
    68   64   70 1   
    69   64   71 1   
    70   65   66 1   
    71   65   67 1   
    72   72   73 1   
    73   72   76 1   
    74   73   74 1   
    75   73   77 1   
    76   73   78 1   
    77   74   75 2   
    78   74   79 1   
    79   79   80 1   
    80   79   86 1   
    81   80   81 1   
    82   80   83 1   
    83   80   87 1   
    84   81   82 2   
    85   81   93 1   
    86   83   84 1   
    87   83   85 1   
    88   83   88 1   
    89   84   90 1   
    90   84   91 1   
    91   84   92 1   
    92   85   89 1   
    93   93   94 1   
    94   93  101 1   
    95   94   95 1   
    96   94   97 1   
    97   94  102 1   
    98   95   96 2   
    99   95  112 1   
   100   97   98 1   
   101   97   99 1   
   102   97  103 1   
   103   98  100 1   
   104   98  104 1   
   105   98  105 1   
   106   99  106 1   
   107   99  107 1   
   108   99  108 1   
   109  100  109 1   
   110  100  110 1   
   111  100  111 1   
   112  112  113 1   
   113  112  119 1   
   114  113  114 1   
   115  113  116 1   
   116  113  120 1   
   117  114  115 2   
   118  114  126 1   
   119  116  117 1   
   120  116  118 1   
   121  116  121 1   
   122  117  123 1   
   123  117  124 1   
   124  117  125 1   
   125  118  122 1   
   126  126  127 1   
   127  126  133 1   
   128  127  128 1   
   129  127  130 1   
   130  127  134 1   
   131  128  129 2   
   132  128  140 1   
   133  130  131 1   
   134  130  132 1   
   135  130  135 1   
   136  131  137 1   
   137  131  138 1   
   138  131  139 1   
   139  132  136 1   
   140  140  141 1   
   141  140  149 1   
   142  141  142 1   
   143  141  144 1   
   144  141  150 1   
   145  142  143 2   
   146  142  162 1   
   147  144  145 1   
   148  144  151 1   
   149  144  152 1   
   150  145  146 1   
   151  145  153 1   
   152  145  154 1   
   153  146  147 1   
   154  146  155 1   
   155  146  156 1   
   156  147  148 1   
   157  147  157 1   
   158  147  158 1   
   159  148  159 1   
   160  148  160 1   
   161  148  161 1   
   162  162  163 1   
   163  162  171 1   
   164  163  164 1   
   165  163  166 1   
   166  163  172 1   
   167  164  165 2   
   168  164  177 1   
   169  166  167 1   
   170  166  173 1   
   171  166  174 1   
   172  167  168 1   
   173  167  175 1   
   174  167  176 1   
   175  168  169 1   
   176  168  170 1   
   177  177  178 1   
   178  177  182 1   
   179  178  179 1   
   180  178  180 1   
   181  178  181 1   
   182  184  185 1   
   183  184  186 1   
   184  187  188 1   
   185  187  189 1   
@<TRIPOS>SUBSTRUCTURE
     1 MOL         1 TEMP              0 ****  ****    0 ROOT
