@<TRIPOS>MOLECULE
MOL
  175   173     1     0     0
SMALL
resp


@<TRIPOS>ATOM
      1 C1          0.2040    4.4420    5.1240 c3        1 MOL     -0.468946
      2 C2         -0.5530    4.3560    3.7120 c         1 MOL      0.695043
      3 O1          0.0810    4.4910    2.6940 o         1 MOL     -0.529996
      4 H1          1.0880    3.8060    5.1010 hc        1 MOL      0.115764
      5 H2          0.5030    5.4730    5.3140 hc        1 MOL      0.115764
      6 H3         -0.4650    4.1050    5.9160 hc        1 MOL      0.115764
      7 N1         -1.8620    3.9710    3.7410 n         1 MOL     -0.662184
      8 C3         -2.5410    3.5180    2.5310 c3        1 MOL      0.101780
      9 C4         -2.7780    4.7460    1.6380 c         1 MOL      0.542740
     10 O2         -3.3130    5.7540    2.0580 o         1 MOL     -0.573840
     11 C5         -3.9030    2.8800    2.9170 c3        1 MOL     -0.424060
     12 C6         -4.5500    2.2450    1.7720 c         1 MOL      0.889750
     13 O3         -3.9200    1.9650    0.7810 o         1 MOL     -0.718965
     14 O4         -5.6870    1.7630    1.9030 o         1 MOL     -0.718965
     15 H4         -2.3870    3.9820    4.6060 hn        1 MOL      0.358739
     16 H5         -2.0100    2.7330    1.9920 h1        1 MOL      0.138273
     17 H6         -4.5920    3.5760    3.4090 hc        1 MOL      0.097144
     18 H7         -3.7940    2.1080    3.6730 hc        1 MOL      0.097144
     19 N2         -2.4880    4.6300    0.3370 n         1 MOL     -0.194408
     20 C7         -2.7180    5.5310   -0.7140 c3        1 MOL      0.108709
     21 C8         -3.6020    4.9910   -1.8480 c         1 MOL      0.465638
     22 O5         -3.8100    5.6020   -2.8780 o         1 MOL     -0.591727
     23 C9         -1.3450    5.9490   -1.1940 c3        1 MOL     -0.118965
     24 H8         -1.8380    3.8990    0.0960 hn        1 MOL      0.176654
     25 H9         -3.2060    6.3780   -0.2420 h1        1 MOL      0.023489
     26 H10        -1.2950    6.7470   -1.9390 hc        1 MOL      0.028531
     27 H11        -0.8550    6.2760   -0.2810 hc        1 MOL      0.028531
     28 H12        -0.7870    5.1070   -1.6080 hc        1 MOL      0.028531
     29 N3         -4.1580    3.8420   -1.6770 n         1 MOL     -0.302261
     30 C10        -4.9530    3.1440   -2.8020 c3        1 MOL      0.035982
     31 C11        -6.1630    2.2200   -2.3670 c         1 MOL      0.337169
     32 O6         -7.1340    2.0270   -3.0820 o         1 MOL     -0.528734
     33 C12        -4.0520    2.3810   -3.7670 c3        1 MOL      0.086953
     34 C13        -3.2250    1.1900   -3.1640 c         1 MOL      0.576393
     35 O7         -2.0610    0.9800   -3.6040 o         1 MOL     -0.666252
     36 O8         -3.6920    0.6260   -2.1280 o         1 MOL     -0.666252
     37 H13        -3.9240    3.3510   -0.8320 hn        1 MOL      0.134174
     38 H14        -5.5050    3.8480   -3.4230 h1        1 MOL      0.077430
     39 H15        -3.3770    3.0270   -4.3370 hc        1 MOL     -0.014186
     40 H16        -4.6290    1.9960   -4.6060 hc        1 MOL     -0.014186
     41 N4         -6.2250    1.8100   -1.0930 n         1 MOL     -0.082588
     42 C14        -7.2140    0.8940   -0.6060 c3        1 MOL     -0.255469
     43 C15        -7.3250   -0.5230   -1.2990 c         1 MOL      0.493620
     44 O9         -8.3740   -1.1370   -1.2200 o         1 MOL     -0.592057
     45 H17        -5.5510    2.1460   -0.4180 hn        1 MOL      0.102481
     46 H18        -8.2170    1.2930   -0.7530 h1        1 MOL      0.117844
     47 H19        -7.1190    0.7360    0.4650 h1        1 MOL      0.117844
     48 N5         -6.2150   -1.0430   -1.8180 n         1 MOL     -0.184391
     49 C16        -6.1100   -2.4420   -2.2210 c3        1 MOL     -0.028192
     50 C17        -6.0790   -3.4970   -1.1860 c         1 MOL      0.430989
     51 O10        -6.0860   -4.6640   -1.5150 o         1 MOL     -0.536821
     52 C18        -4.9190   -2.6000   -3.1720 c3        1 MOL     -0.214148
     53 C19        -3.5620   -2.5640   -2.4900 c         1 MOL      0.600917
     54 N6         -2.4780   -2.8790   -3.1790 n         1 MOL     -0.618130
     55 O11        -3.3040   -2.2890   -1.2880 o         1 MOL     -0.516606
     56 H20        -5.3970   -0.4620   -1.8720 hn        1 MOL      0.166260
     57 H21        -7.0000   -2.6620   -2.8100 h1        1 MOL      0.098432
     58 H22        -5.0230   -1.7500   -3.8510 hc        1 MOL      0.069365
     59 H23        -4.9700   -3.5740   -3.6590 hc        1 MOL      0.069365
     60 H24        -2.6210   -2.9560   -4.1790 hn        1 MOL      0.305106
     61 H25        -1.5630   -2.6430   -2.8130 hn        1 MOL      0.305106
     62 N7         -6.0200   -3.1560    0.0890 n         1 MOL     -0.105188
     63 C20        -6.1000   -4.0250    1.2460 c3        1 MOL     -0.359102
     64 C21        -4.7870   -4.5520    1.7180 c         1 MOL      0.677744
     65 O12        -4.7670   -5.3300    2.6790 o         1 MOL     -0.609767
     66 H26        -5.9020   -2.1670    0.2720 hn        1 MOL      0.156351
     67 H27        -6.7130   -4.8680    0.9500 h1        1 MOL      0.140902
     68 H28        -6.5880   -3.4450    2.0380 h1        1 MOL      0.140902
     69 N8         -3.6020   -4.0060    1.2950 n         1 MOL     -0.368906
     70 C22        -2.2460   -4.4500    1.5690 c3        1 MOL     -0.012009
     71 C23        -1.2760   -3.2880    1.8690 c         1 MOL      0.490904
     72 O13        -1.5400   -2.2220    1.2680 o         1 MOL     -0.621607
     73 C24        -1.5710   -5.2640    0.4280 c3        1 MOL      0.607900
     74 C25        -1.9070   -6.7060    0.5830 c3        1 MOL     -0.265332
     75 O14        -2.0020   -4.7740   -0.7780 oh        1 MOL     -0.627917
     76 H29        -3.6220   -3.2410    0.6470 hn        1 MOL      0.217872
     77 H30        -2.3580   -5.0300    2.4820 h1        1 MOL      0.033179
     78 H31        -0.4920   -5.3440    0.4870 h1        1 MOL     -0.068365
     79 H32        -1.6510   -3.8980   -0.9230 ho        1 MOL      0.341686
     80 H33        -2.9620   -6.9630    0.4490 hc        1 MOL      0.043363
     81 H34        -1.3480   -7.3080   -0.1260 hc        1 MOL      0.043363
     82 H35        -1.5680   -7.0050    1.5750 hc        1 MOL      0.043363
     83 N9         -0.1720   -3.5170    2.5210 n         1 MOL     -0.484248
     84 C26         1.0010   -2.6370    2.3370 c3        1 MOL      0.085481
     85 C27         1.6700   -2.7900    0.9770 c         1 MOL      0.480377
     86 O15         2.1950   -3.8690    0.7040 o         1 MOL     -0.588525
     87 C28         1.9530   -2.8320    3.5490 c3        1 MOL      0.007656
     88 C29         1.4550   -2.2500    4.8650 c3        1 MOL      0.050662
     89 C30         3.3160   -2.2200    3.2230 c3        1 MOL     -0.070820
     90 C31         2.2450   -2.4120    6.1610 c3        1 MOL     -0.095945
     91 H36        -0.0380   -4.4380    2.9050 hn        1 MOL      0.280963
     92 H37         0.7710   -1.5810    2.2890 h1        1 MOL      0.080334
     93 H38         2.0420   -3.9040    3.6840 hc        1 MOL      0.010647
     94 H39         0.4510   -2.6450    5.0620 hc        1 MOL     -0.005400
     95 H40         1.2240   -1.1890    4.7430 hc        1 MOL     -0.005400
     96 H41         3.9770   -2.3070    4.0860 hc        1 MOL      0.011061
     97 H42         3.7290   -2.7370    2.3570 hc        1 MOL      0.011061
     98 H43         3.2380   -1.1540    3.0000 hc        1 MOL      0.011061
     99 H44         3.2510   -1.9900    6.1700 hc        1 MOL      0.017411
    100 H45         1.7420   -1.9510    7.0140 hc        1 MOL      0.017411
    101 H46         2.2620   -3.4890    6.3680 hc        1 MOL      0.017411
    102 N10         1.8500   -1.6930    0.2890 n         1 MOL      0.029302
    103 C32         2.6860   -1.6720   -0.8840 c3        1 MOL     -0.004833
    104 C33         4.1270   -1.3290   -0.5860 c         1 MOL      0.449706
    105 O16         4.4410   -0.8640    0.4890 o         1 MOL     -0.315753
    106 C34         1.8750   -0.9390   -2.0030 c3        1 MOL     -0.268223
    107 C35         0.3720   -1.5080   -2.2280 c         1 MOL      0.744725
    108 O17        -0.4990   -1.2560   -1.3620 o         1 MOL     -0.642071
    109 O18         0.2070   -2.2060   -3.1960 o         1 MOL     -0.642071
    110 H47         1.4730   -0.8030    0.5830 hn        1 MOL     -0.138479
    111 H48         2.6740   -2.6750   -1.3100 h1        1 MOL      0.071103
    112 H49         2.3330   -0.9000   -2.9840 hc        1 MOL      0.078378
    113 H50         1.7460    0.1240   -1.8040 hc        1 MOL      0.078378
    114 N11         5.0850   -1.7080   -1.4320 n         1 MOL     -0.665903
    115 C36         6.5090   -1.4190   -1.2550 c3        1 MOL      0.477086
    116 C37         6.8820    0.1270   -1.0820 c         1 MOL      0.231960
    117 O19         7.5430    0.4550   -0.1140 o         1 MOL     -0.493599
    118 C38         7.4770   -2.1310   -2.2100 c3        1 MOL     -0.226306
    119 C39         8.9420   -1.8430   -2.0040 ca        1 MOL      0.199772
    120 C40         9.5680   -2.0530   -0.7220 ca        1 MOL     -0.239666
    121 C41         9.6800   -1.5180   -3.1280 ca        1 MOL     -0.239666
    122 C42        10.9650   -1.7230   -0.6100 ca        1 MOL      0.000898
    123 C43        11.0580   -1.2410   -3.0060 ca        1 MOL      0.000898
    124 C44        11.7380   -1.4070   -1.7830 ca        1 MOL     -0.279612
    125 H51         4.7540   -2.0490   -2.3230 hn        1 MOL      0.319846
    126 H52         6.6730   -1.8060   -0.2500 h1        1 MOL      0.036198
    127 H53         7.2010   -1.8550   -3.2320 hc        1 MOL      0.055097
    128 H54         7.2540   -3.1990   -2.1760 hc        1 MOL      0.055097
    129 H55         8.9350   -2.2110    0.1390 ha        1 MOL      0.124997
    130 H56         9.1990   -1.4010   -4.0870 ha        1 MOL      0.124997
    131 H57        11.4920   -1.7230    0.3340 ha        1 MOL      0.088173
    132 H58        11.6530   -0.8620   -3.8280 ha        1 MOL      0.088173
    133 H59        12.6910   -0.9460   -1.5800 ha        1 MOL      0.149385
    134 N12         6.2980    1.0820   -1.7910 n         1 MOL      0.005935
    135 C45         6.4910    2.4560   -1.5140 c3        1 MOL     -0.032197
    136 C46         5.6970    2.8860   -0.2550 c         1 MOL      0.330745
    137 O20         5.8930    4.0320    0.1990 o         1 MOL     -0.488883
    138 C47         5.9950    3.1650   -2.7830 c3        1 MOL     -0.121632
    139 C48         6.2870    2.1250   -3.8490 c3        1 MOL      0.057459
    140 C49         5.8040    0.8660   -3.1870 c3        1 MOL     -0.017439
    141 H60         7.5520    2.6780   -1.3400 h1        1 MOL      0.083063
    142 H61         4.9070    3.2310   -2.7530 hc        1 MOL      0.071679
    143 H62         6.3800    4.1680   -2.9270 hc        1 MOL      0.071679
    144 H63         5.7680    2.3400   -4.7820 hc        1 MOL     -0.002691
    145 H64         7.3550    2.1490   -4.0960 hc        1 MOL     -0.002691
    146 H65         4.7260    0.7580   -3.1890 h1        1 MOL      0.017343
    147 H66         6.3000    0.0020   -3.6300 h1        1 MOL      0.017343
    148 N13         4.7080    2.0570    0.1840 n         1 MOL     -0.076847
    149 C50         3.9480    2.3250    1.3900 c3        1 MOL     -0.086537
    150 C51         4.7880    1.8860    2.5710 c         1 MOL      0.395240
    151 O21         4.9460    2.6910    3.4990 o         1 MOL     -0.553633
    152 C52         2.5450    1.6030    1.3380 c3        1 MOL     -0.018288
    153 C53         1.5390    2.2740    0.3280 c3        1 MOL      0.114025
    154 C54         0.1900    1.6920    0.3870 c         1 MOL      0.426419
    155 O22        -0.7700    2.0540   -0.3930 o         1 MOL     -0.617904
    156 O23        -0.0630    0.6260    1.1000 o         1 MOL     -0.617904
    157 H67         4.3460    1.3490   -0.4340 hn        1 MOL      0.093084
    158 H68         3.6870    3.3820    1.4050 h1        1 MOL      0.097973
    159 H69         2.1410    1.5960    2.3560 hc        1 MOL      0.052225
    160 H70         2.6680    0.5390    1.1470 hc        1 MOL      0.052225
    161 H71         1.9810    2.2490   -0.6640 hc        1 MOL      0.004923
    162 H72         1.4970    3.3360    0.5980 hc        1 MOL      0.004923
    163 N14         5.5560    0.7980    2.4500 n         1 MOL      0.073026
    164 C55         6.6000    0.3700    3.3810 c3        1 MOL     -0.309458
    165 H73         7.0520   -0.5540    3.0200 h1        1 MOL      0.103715
    166 H74         7.3640    1.1440    3.4530 h1        1 MOL      0.103715
    167 H75         6.1620    0.1990    4.3640 h1        1 MOL      0.103715
    168 H76         5.3030    0.2140    1.6660 hn        1 MOL     -0.017627
    169 Ca1        -2.3490   -0.0160   -0.0840 Ca        1 MOL      1.694421
    170 O24        -2.2200    0.3190    2.6700 oh        1 MOL     -0.749344
    171 H77        -1.2630    0.4270    2.6510 ho        1 MOL      0.369483
    172 H78        -2.4570    0.4820    3.5860 ho        1 MOL      0.369483
    173 O25        -4.7960   -0.7480    1.3060 oh        1 MOL     -0.749344
    174 H79        -5.0390    0.1760    1.3910 ho        1 MOL      0.369483
    175 H80        -5.2950   -1.1950    1.9870 ho        1 MOL      0.369483
@<TRIPOS>BOND
     1    1    2 1   
     2    1    4 1   
     3    1    5 1   
     4    1    6 1   
     5    2    3 2   
     6    2    7 1   
     7    7    8 1   
     8    7   15 1   
     9    8    9 1   
    10    8   11 1   
    11    8   16 1   
    12    9   10 2   
    13    9   19 1   
    14   11   12 1   
    15   11   17 1   
    16   11   18 1   
    17   12   13 1   
    18   12   14 1   
    19   19   20 1   
    20   19   24 1   
    21   20   21 1   
    22   20   23 1   
    23   20   25 1   
    24   21   22 2   
    25   21   29 1   
    26   23   26 1   
    27   23   27 1   
    28   23   28 1   
    29   29   30 1   
    30   29   37 1   
    31   30   31 1   
    32   30   33 1   
    33   30   38 1   
    34   31   32 2   
    35   31   41 1   
    36   33   34 1   
    37   33   39 1   
    38   33   40 1   
    39   34   35 1   
    40   34   36 1   
    41   41   42 1   
    42   41   45 1   
    43   42   43 1   
    44   42   46 1   
    45   42   47 1   
    46   43   44 2   
    47   43   48 1   
    48   48   49 1   
    49   48   56 1   
    50   49   50 1   
    51   49   52 1   
    52   49   57 1   
    53   50   51 2   
    54   50   62 1   
    55   52   53 1   
    56   52   58 1   
    57   52   59 1   
    58   53   54 1   
    59   53   55 2   
    60   54   60 1   
    61   54   61 1   
    62   62   63 1   
    63   62   66 1   
    64   63   64 1   
    65   63   67 1   
    66   63   68 1   
    67   64   65 2   
    68   64   69 1   
    69   69   70 1   
    70   69   76 1   
    71   70   71 1   
    72   70   73 1   
    73   70   77 1   
    74   71   72 2   
    75   71   83 1   
    76   73   74 1   
    77   73   75 1   
    78   73   78 1   
    79   74   80 1   
    80   74   81 1   
    81   74   82 1   
    82   75   79 1   
    83   83   84 1   
    84   83   91 1   
    85   84   85 1   
    86   84   87 1   
    87   84   92 1   
    88   85   86 2   
    89   85  102 1   
    90   87   88 1   
    91   87   89 1   
    92   87   93 1   
    93   88   90 1   
    94   88   94 1   
    95   88   95 1   
    96   89   96 1   
    97   89   97 1   
    98   89   98 1   
    99   90   99 1   
   100   90  100 1   
   101   90  101 1   
   102  102  103 1   
   103  102  110 1   
   104  103  104 1   
   105  103  106 1   
   106  103  111 1   
   107  104  105 2   
   108  104  114 1   
   109  106  107 1   
   110  106  112 1   
   111  106  113 1   
   112  107  108 1   
   113  107  109 1   
   114  114  115 1   
   115  114  125 1   
   116  115  116 1   
   117  115  118 1   
   118  115  126 1   
   119  116  117 2   
   120  116  134 1   
   121  118  119 1   
   122  118  127 1   
   123  118  128 1   
   124  119  120 ar  
   125  119  121 ar  
   126  120  122 ar  
   127  120  129 1   
   128  121  123 ar  
   129  121  130 1   
   130  122  124 ar  
   131  122  131 1   
   132  123  124 ar  
   133  123  132 1   
   134  124  133 1   
   135  134  135 1   
   136  134  140 1   
   137  135  136 1   
   138  135  138 1   
   139  135  141 1   
   140  136  137 2   
   141  136  148 1   
   142  138  139 1   
   143  138  142 1   
   144  138  143 1   
   145  139  140 1   
   146  139  144 1   
   147  139  145 1   
   148  140  146 1   
   149  140  147 1   
   150  148  149 1   
   151  148  157 1   
   152  149  150 1   
   153  149  152 1   
   154  149  158 1   
   155  150  151 2   
   156  150  163 1   
   157  152  153 1   
   158  152  159 1   
   159  152  160 1   
   160  153  154 1   
   161  153  161 1   
   162  153  162 1   
   163  154  155 1   
   164  154  156 1   
   165  163  164 1   
   166  163  168 1   
   167  164  165 1   
   168  164  166 1   
   169  164  167 1   
   170  170  171 1   
   171  170  172 1   
   172  173  174 1   
   173  173  175 1   
@<TRIPOS>SUBSTRUCTURE
     1 MOL         1 TEMP              0 ****  ****    0 ROOT
