@<TRIPOS>MOLECULE
MOL
  176   174     1     0     0
SMALL
resp


@<TRIPOS>ATOM
      1 C1          0.8940    3.9560    6.2290 c3        1 MOL     -0.308974
      2 C2          0.7790    3.3570    4.8250 c         1 MOL      0.741046
      3 O1          1.7980    3.1790    4.1820 o         1 MOL     -0.587942
      4 H1          1.5710    3.3480    6.8270 hc        1 MOL      0.072617
      5 H2          1.2840    4.9720    6.1600 hc        1 MOL      0.072617
      6 H3         -0.0890    3.9740    6.6990 hc        1 MOL      0.072617
      7 N1         -0.4300    3.0550    4.3850 n         1 MOL     -0.542899
      8 C3         -0.6690    2.5890    3.0430 c3        1 MOL     -0.028872
      9 C4         -0.7530    3.7540    2.0040 c         1 MOL      0.520392
     10 O2         -1.3720    4.7700    2.3420 o         1 MOL     -0.524283
     11 C5         -1.9970    1.8360    3.1520 c3        1 MOL     -0.196622
     12 C6         -2.4410    1.3860    1.7670 c         1 MOL      0.942162
     13 O3         -2.8160    0.2230    1.5930 o         1 MOL     -0.859648
     14 O4         -2.2920    2.0070    0.7370 o         1 MOL     -0.859648
     15 H4         -1.2400    3.3470    4.9230 hn        1 MOL      0.319317
     16 H5          0.1050    1.8890    2.7490 h1        1 MOL      0.119529
     17 H6         -2.8660    2.2470    3.6700 hc        1 MOL      0.050937
     18 H7         -1.7980    0.9440    3.7370 hc        1 MOL      0.050937
     19 N2          0.0840    3.7370    0.8950 n         1 MOL     -0.029226
     20 C7          0.2400    4.8800    0.0480 c3        1 MOL     -0.600966
     21 C8         -1.0550    5.4780   -0.5670 c         1 MOL      0.711582
     22 O5         -1.2010    6.6330   -0.9280 o         1 MOL     -0.576519
     23 C9          1.2490    4.5010   -1.1610 c3        1 MOL      0.279423
     24 C10         1.8950    5.6490   -1.8780 c3        1 MOL     -0.528396
     25 C11         2.9560    5.2840   -2.8110 c3        1 MOL      0.015162
     26 C12         3.0690    6.2540   -3.9560 c3        1 MOL      0.120473
     27 N3          3.9320    5.7400   -5.0590 n4        1 MOL     -0.398834
     28 H8          0.6850    2.9270    0.7720 hn        1 MOL      0.112734
     29 H9          0.6270    5.6090    0.7660 h1        1 MOL      0.186967
     30 H10         0.8480    3.7540   -1.8490 hc        1 MOL      0.088606
     31 H11         2.1030    4.0360   -0.6640 hc        1 MOL      0.088606
     32 H12         2.3220    6.1470   -1.0170 hc        1 MOL      0.166810
     33 H13         1.1490    6.2170   -2.4280 hc        1 MOL      0.166810
     34 H14         2.7960    4.2910   -3.2360 hc        1 MOL      0.040420
     35 H15         3.8800    5.2280   -2.2260 hc        1 MOL      0.040420
     36 H16         3.5280    7.1580   -3.5380 hx        1 MOL      0.070770
     37 H17         2.1080    6.6620   -4.2530 hx        1 MOL      0.070770
     38 H18         4.7650    5.3370   -4.6470 hn        1 MOL      0.332523
     39 H19         3.5380    5.0660   -5.7090 hn        1 MOL      0.332523
     40 H20         4.3110    6.5110   -5.5980 hn        1 MOL      0.332523
     41 N4         -2.0400    4.5560   -0.7290 n         1 MOL     -0.408400
     42 C13        -3.2090    4.6740   -1.6210 c3        1 MOL      0.114619
     43 C14        -4.5230    4.3950   -0.8460 c         1 MOL      0.451818
     44 O6         -5.5190    5.0780   -1.1280 o         1 MOL     -0.536825
     45 C15        -3.1360    3.7520   -2.8230 c3        1 MOL     -0.314965
     46 C16        -2.6570    2.3430   -2.4240 c         1 MOL      0.804445
     47 O7         -3.5280    1.5170   -2.0700 o         1 MOL     -0.774636
     48 O8         -1.4650    2.0000   -2.5460 o         1 MOL     -0.774636
     49 H21        -1.8360    3.7110   -0.2080 hn        1 MOL      0.250375
     50 H22        -3.2640    5.7260   -1.9130 h1        1 MOL      0.077768
     51 H23        -2.3810    4.1300   -3.5170 hc        1 MOL      0.082422
     52 H24        -4.1120    3.6680   -3.2940 hc        1 MOL      0.082422
     53 N5         -4.5430    3.4930    0.2210 n         1 MOL     -0.216366
     54 C17        -5.7080    3.2550    1.0250 c3        1 MOL     -0.111077
     55 C18        -6.5680    2.0020    0.6020 c         1 MOL      0.544027
     56 O9         -7.6130    1.7860    1.1720 o         1 MOL     -0.593830
     57 H25        -3.7240    2.9380    0.4610 hn        1 MOL      0.157205
     58 H26        -6.3630    4.1190    1.1420 h1        1 MOL      0.084876
     59 H27        -5.3240    3.0100    2.0150 h1        1 MOL      0.084876
     60 N6         -6.0610    1.1690   -0.2980 n         1 MOL     -0.315437
     61 C19        -6.7500   -0.0840   -0.7400 c3        1 MOL     -0.051044
     62 C20        -6.7200   -1.2530    0.1530 c         1 MOL      0.509530
     63 O10        -7.1730   -2.3020   -0.3030 o         1 MOL     -0.505745
     64 C21        -6.3360   -0.4220   -2.1700 c3        1 MOL     -0.262932
     65 C22        -4.9820   -1.0590   -2.2030 c         1 MOL      0.656482
     66 N7         -4.6640   -1.4540   -3.4350 n         1 MOL     -0.682541
     67 O11        -4.2170   -1.2130   -1.2460 o         1 MOL     -0.553811
     68 H28        -5.1900    1.5050   -0.6700 hn        1 MOL      0.231580
     69 H29        -7.8170    0.1560   -0.8000 h1        1 MOL      0.134442
     70 H30        -6.2960    0.4810   -2.7860 hc        1 MOL      0.112613
     71 H31        -7.0980   -1.0420   -2.6250 hc        1 MOL      0.112613
     72 H32        -5.2690   -1.3230   -4.2330 hn        1 MOL      0.330576
     73 H33        -3.7890   -1.9390   -3.5710 hn        1 MOL      0.330576
     74 N8         -6.1870   -1.1100    1.4390 n         1 MOL     -0.376555
     75 C23        -6.2330   -2.2040    2.3680 c3        1 MOL     -0.120845
     76 C24        -5.1970   -3.3410    2.2720 c         1 MOL      0.474423
     77 O12        -5.3150   -4.3370    2.9370 o         1 MOL     -0.554601
     78 H34        -5.8040   -0.2390    1.7920 hn        1 MOL      0.332702
     79 H35        -7.1860   -2.7140    2.5360 h1        1 MOL      0.096898
     80 H36        -6.0140   -1.7710    3.3470 h1        1 MOL      0.096898
     81 N9         -4.2410   -3.2610    1.3400 n         1 MOL     -0.148015
     82 C25        -2.9910   -4.0660    1.5000 c3        1 MOL     -0.035814
     83 C26        -1.7430   -3.3260    1.0370 c         1 MOL      0.551545
     84 O13        -1.8500   -2.4120    0.2250 o         1 MOL     -0.517881
     85 C27        -3.0900   -5.3740    0.7170 c3        1 MOL     -0.171708
     86 C28        -2.9420   -5.2740   -0.7940 ca        1 MOL      0.039559
     87 C29        -1.6550   -5.3620   -1.3710 ca        1 MOL     -0.124685
     88 C30        -4.0720   -4.9460   -1.6220 ca        1 MOL     -0.124685
     89 C31        -1.5520   -5.4190   -2.7840 ca        1 MOL     -0.247160
     90 C32        -3.9570   -5.0560   -3.0300 ca        1 MOL     -0.247160
     91 C33        -2.6700   -5.2530   -3.6230 ca        1 MOL      0.270483
     92 O14        -2.4500   -4.9980   -4.9320 oh        1 MOL     -0.471356
     93 H37        -4.2400   -2.4300    0.7670 hn        1 MOL      0.175880
     94 H38        -2.7780   -4.2310    2.5620 h1        1 MOL      0.088965
     95 H39        -4.0500   -5.8580    0.9030 hc        1 MOL      0.079648
     96 H40        -2.3340   -6.0800    1.0700 hc        1 MOL      0.079648
     97 H41        -0.7920   -5.5580   -0.7550 ha        1 MOL      0.149469
     98 H42        -5.0260   -4.7900   -1.1480 ha        1 MOL      0.149469
     99 H43        -0.5790   -5.6160   -3.2200 ha        1 MOL      0.132653
    100 H44        -4.7460   -4.6730   -3.6590 ha        1 MOL      0.132653
    101 H45        -1.5540   -5.1910   -5.2110 ho        1 MOL      0.354201
    102 N10        -0.6150   -3.6390    1.6780 n         1 MOL     -0.425148
    103 C34         0.6490   -2.9600    1.5020 c3        1 MOL     -0.236264
    104 C35         1.7670   -3.8900    0.9740 c         1 MOL      0.712045
    105 O15         1.6110   -5.1250    0.8990 o         1 MOL     -0.586837
    106 C36         1.0600   -2.1760    2.8310 c3        1 MOL      0.009851
    107 C37         1.4370   -3.1560    3.9650 c3        1 MOL     -0.190909
    108 C38         0.0960   -1.0760    3.1960 c3        1 MOL     -0.005253
    109 C39         2.1370   -2.5190    5.1890 c3        1 MOL     -0.118911
    110 H46        -0.6470   -4.3020    2.4480 hn        1 MOL      0.307929
    111 H47         0.6100   -2.2940    0.6430 h1        1 MOL      0.139695
    112 H48         2.0110   -1.7120    2.5570 hc        1 MOL      0.004166
    113 H49         2.0100   -3.9510    3.4930 hc        1 MOL      0.064032
    114 H50         0.4980   -3.6130    4.2910 hc        1 MOL      0.064032
    115 H51        -0.8700   -1.5230    3.4460 hc        1 MOL      0.030035
    116 H52         0.4290   -0.4940    4.0590 hc        1 MOL      0.030035
    117 H53         0.0050   -0.3580    2.3840 hc        1 MOL      0.030035
    118 H54         2.3820   -3.2110    6.0040 hc        1 MOL      0.048628
    119 H55         3.0020   -1.9380    4.8700 hc        1 MOL      0.048628
    120 H56         1.4000   -1.9200    5.7250 hc        1 MOL      0.048628
    121 N11         2.8380   -3.2330    0.4880 n         1 MOL     -0.272553
    122 C40         3.9950   -4.0730   -0.0360 c3        1 MOL     -0.216817
    123 C41         5.2760   -3.1780    0.1660 c         1 MOL      0.676836
    124 O16         5.1990   -2.0900    0.7340 o         1 MOL     -0.585003
    125 C42         3.8720   -4.4020   -1.5720 c3        1 MOL      0.092263
    126 O17         3.8470   -3.1510   -2.2960 oh        1 MOL     -0.562803
    127 H57         2.8810   -2.2350    0.4870 hn        1 MOL      0.293085
    128 H58         4.1760   -4.9670    0.5620 h1        1 MOL      0.115639
    129 H59         2.9470   -4.9630   -1.6990 h1        1 MOL      0.061467
    130 H60         4.7180   -4.9110   -2.0250 h1        1 MOL      0.061467
    131 H61         4.7080   -2.9850   -2.6880 ho        1 MOL      0.367373
    132 N12         6.4930   -3.6190   -0.2720 n         1 MOL     -0.512146
    133 C43         7.7620   -2.9850    0.0680 c3        1 MOL      0.115707
    134 C44         7.9590   -1.5420   -0.4170 c         1 MOL      0.480621
    135 O18         8.5050   -0.7200    0.2870 o         1 MOL     -0.513728
    136 C45         8.9310   -3.8900   -0.3170 c3        1 MOL     -0.373127
    137 H62         6.6550   -4.5350   -0.6680 hn        1 MOL      0.294612
    138 H63         7.8400   -2.8840    1.1540 h1        1 MOL      0.088187
    139 H64         9.8670   -3.4740    0.0660 hc        1 MOL      0.114843
    140 H65         8.7780   -4.9240    0.0070 hc        1 MOL      0.114843
    141 H66         9.0460   -3.9150   -1.3980 hc        1 MOL      0.114843
    142 N13         7.4520   -1.1910   -1.5740 n         1 MOL     -0.349624
    143 C46         7.5080    0.2240   -2.0540 c3        1 MOL      0.121034
    144 C47         6.5920    1.1470   -1.2260 c         1 MOL      0.323689
    145 O19         7.0610    2.2630   -0.9160 o         1 MOL     -0.495762
    146 C48         7.2460    0.4250   -3.5500 c3        1 MOL     -0.263862
    147 H67         7.1520   -1.8700   -2.2570 hn        1 MOL      0.235418
    148 H68         8.5370    0.5830   -1.9920 h1        1 MOL      0.092729
    149 H69         7.9290   -0.2190   -4.1040 hc        1 MOL      0.072297
    150 H70         6.2140    0.1610   -3.7460 hc        1 MOL      0.072297
    151 H71         7.3190    1.4690   -3.8630 hc        1 MOL      0.072297
    152 N14         5.4520    0.6580   -0.7030 n         1 MOL     -0.142817
    153 C49         4.7060    1.4780    0.2290 c3        1 MOL     -0.222576
    154 C50         5.3580    1.5800    1.5830 c         1 MOL      0.555893
    155 O20         5.1390    2.6080    2.2430 o         1 MOL     -0.529107
    156 C51         3.2880    0.8850    0.3250 c3        1 MOL      0.128003
    157 C52         2.4230    0.8070   -0.9740 c3        1 MOL      0.174399
    158 C53         1.1050    0.1700   -0.6690 c         1 MOL      0.719269
    159 O21         0.7330   -0.8580   -1.3070 o         1 MOL     -0.761867
    160 O22         0.3200    0.7810    0.1130 o         1 MOL     -0.761867
    161 H72         5.1030   -0.2710   -0.8670 hn        1 MOL      0.227861
    162 H73         4.5710    2.4920   -0.1500 h1        1 MOL      0.105426
    163 H74         2.7340    1.4480    1.0720 hc        1 MOL     -0.024542
    164 H75         3.4460   -0.1500    0.6180 hc        1 MOL     -0.024542
    165 H76         3.0350    0.2560   -1.6900 hc        1 MOL     -0.134597
    166 H77         2.2600    1.8170   -1.3360 hc        1 MOL     -0.134597
    167 N15         6.2510    0.6670    1.9680 n         1 MOL     -0.207695
    168 C54         7.1320    0.8540    3.1210 c3        1 MOL     -0.295761
    169 H78         7.1120   -0.0420    3.7410 h1        1 MOL      0.121860
    170 H79         8.1500    1.0340    2.7760 h1        1 MOL      0.121860
    171 H80         6.7900    1.7080    3.7070 h1        1 MOL      0.121860
    172 H81         6.5400    0.0200    1.2610 hn        1 MOL      0.234301
    173 Ca1        -1.8590   -0.1190   -0.9280 Ca        1 MOL      1.753792
    174 O23        -1.6610   -2.1530   -2.8530 oh        1 MOL     -0.823369
    175 H82        -1.5020   -3.0210   -2.4850 ho        1 MOL      0.398081
    176 H83        -1.3410   -2.2170   -3.7580 ho        1 MOL      0.398081
@<TRIPOS>BOND
     1    1    2 1   
     2    1    4 1   
     3    1    5 1   
     4    1    6 1   
     5    2    3 2   
     6    2    7 1   
     7    7    8 1   
     8    7   15 1   
     9    8    9 1   
    10    8   11 1   
    11    8   16 1   
    12    9   10 2   
    13    9   19 1   
    14   11   12 1   
    15   11   17 1   
    16   11   18 1   
    17   12   13 1   
    18   12   14 1   
    19   19   20 1   
    20   19   28 1   
    21   20   21 1   
    22   20   23 1   
    23   20   29 1   
    24   21   22 2   
    25   21   41 1   
    26   23   24 1   
    27   23   30 1   
    28   23   31 1   
    29   24   25 1   
    30   24   32 1   
    31   24   33 1   
    32   25   26 1   
    33   25   34 1   
    34   25   35 1   
    35   26   27 1   
    36   26   36 1   
    37   26   37 1   
    38   27   38 1   
    39   27   39 1   
    40   27   40 1   
    41   41   42 1   
    42   41   49 1   
    43   42   43 1   
    44   42   45 1   
    45   42   50 1   
    46   43   44 2   
    47   43   53 1   
    48   45   46 1   
    49   45   51 1   
    50   45   52 1   
    51   46   47 1   
    52   46   48 1   
    53   53   54 1   
    54   53   57 1   
    55   54   55 1   
    56   54   58 1   
    57   54   59 1   
    58   55   56 2   
    59   55   60 1   
    60   60   61 1   
    61   60   68 1   
    62   61   62 1   
    63   61   64 1   
    64   61   69 1   
    65   62   63 2   
    66   62   74 1   
    67   64   65 1   
    68   64   70 1   
    69   64   71 1   
    70   65   66 1   
    71   65   67 2   
    72   66   72 1   
    73   66   73 1   
    74   74   75 1   
    75   74   78 1   
    76   75   76 1   
    77   75   79 1   
    78   75   80 1   
    79   76   77 2   
    80   76   81 1   
    81   81   82 1   
    82   81   93 1   
    83   82   83 1   
    84   82   85 1   
    85   82   94 1   
    86   83   84 2   
    87   83  102 1   
    88   85   86 1   
    89   85   95 1   
    90   85   96 1   
    91   86   87 ar  
    92   86   88 ar  
    93   87   89 ar  
    94   87   97 1   
    95   88   90 ar  
    96   88   98 1   
    97   89   91 ar  
    98   89   99 1   
    99   90   91 ar  
   100   90  100 1   
   101   91   92 1   
   102   92  101 1   
   103  102  103 1   
   104  102  110 1   
   105  103  104 1   
   106  103  106 1   
   107  103  111 1   
   108  104  105 2   
   109  104  121 1   
   110  106  107 1   
   111  106  108 1   
   112  106  112 1   
   113  107  109 1   
   114  107  113 1   
   115  107  114 1   
   116  108  115 1   
   117  108  116 1   
   118  108  117 1   
   119  109  118 1   
   120  109  119 1   
   121  109  120 1   
   122  121  122 1   
   123  121  127 1   
   124  122  123 1   
   125  122  125 1   
   126  122  128 1   
   127  123  124 2   
   128  123  132 1   
   129  125  126 1   
   130  125  129 1   
   131  125  130 1   
   132  126  131 1   
   133  132  133 1   
   134  132  137 1   
   135  133  134 1   
   136  133  136 1   
   137  133  138 1   
   138  134  135 2   
   139  134  142 1   
   140  136  139 1   
   141  136  140 1   
   142  136  141 1   
   143  142  143 1   
   144  142  147 1   
   145  143  144 1   
   146  143  146 1   
   147  143  148 1   
   148  144  145 2   
   149  144  152 1   
   150  146  149 1   
   151  146  150 1   
   152  146  151 1   
   153  152  153 1   
   154  152  161 1   
   155  153  154 1   
   156  153  156 1   
   157  153  162 1   
   158  154  155 2   
   159  154  167 1   
   160  156  157 1   
   161  156  163 1   
   162  156  164 1   
   163  157  158 1   
   164  157  165 1   
   165  157  166 1   
   166  158  159 1   
   167  158  160 1   
   168  167  168 1   
   169  167  172 1   
   170  168  169 1   
   171  168  170 1   
   172  168  171 1   
   173  174  175 1   
   174  174  176 1   
@<TRIPOS>SUBSTRUCTURE
     1 MOL         1 TEMP              0 ****  ****    0 ROOT
