@<TRIPOS>MOLECULE
MOL
  186   183     1     0     0
SMALL
resp


@<TRIPOS>ATOM
      1 C1          0.7190   -2.0740    6.1420 c3        1 MOL     -0.432315
      2 C2          1.2020   -1.9240    4.6350 c         1 MOL      0.719004
      3 O1          0.5870   -2.5140    3.7560 o         1 MOL     -0.552592
      4 H1         -0.3360   -1.8090    6.2140 hc        1 MOL      0.106173
      5 H2          0.8580   -3.1050    6.4680 hc        1 MOL      0.106173
      6 H3          1.3030   -1.4090    6.7790 hc        1 MOL      0.106173
      7 N1          2.3970   -1.3750    4.3800 n         1 MOL     -0.704933
      8 C3          2.9910   -1.3940    3.0510 c3        1 MOL      0.439421
      9 C4          3.4770   -2.8340    2.6340 c         1 MOL      0.450335
     10 O2          4.3730   -3.2940    3.3150 o         1 MOL     -0.581012
     11 C5          4.1920   -0.4410    3.0690 c3        1 MOL     -0.223796
     12 C6          4.8580   -0.3220    1.7380 c         1 MOL      0.633959
     13 O3          6.0730   -0.0430    1.6680 o         1 MOL     -0.591228
     14 O4          4.1510   -0.6290    0.7570 o         1 MOL     -0.591228
     15 H4          2.8810   -0.9800    5.1640 hn        1 MOL      0.334450
     16 H5          2.3270   -1.0810    2.2430 h1        1 MOL     -0.040306
     17 H6          4.8640   -0.6460    3.9080 hc        1 MOL      0.027272
     18 H7          3.6830    0.4980    3.2710 hc        1 MOL      0.027272
     19 N2          2.8650   -3.4950    1.6220 n         1 MOL     -0.033408
     20 C7          3.1420   -4.9010    1.2440 c3        1 MOL     -0.023635
     21 C8          4.2170   -4.8610    0.0880 c         1 MOL      0.303332
     22 O5          5.2090   -5.5700    0.1670 o         1 MOL     -0.547209
     23 C9          1.8130   -5.7780    0.9580 c3        1 MOL      0.016698
     24 C10         1.0490   -5.4210   -0.3560 c3        1 MOL     -0.006573
     25 C11         0.8070   -5.6940    2.1710 c3        1 MOL     -0.328738
     26 C12        -0.1870   -6.3050   -0.7650 c3        1 MOL     -0.212384
     27 H8          2.0880   -3.0840    1.1220 hn        1 MOL      0.009022
     28 H9          3.7960   -5.2470    2.0390 h1        1 MOL      0.062097
     29 H10         2.1120   -6.8320    0.9840 hc        1 MOL      0.023769
     30 H11         1.7390   -5.5240   -1.1940 hc        1 MOL      0.038385
     31 H12         0.7290   -4.3870   -0.3460 hc        1 MOL      0.038385
     32 H13         0.0040   -6.4160    1.9970 hc        1 MOL      0.093758
     33 H14         1.3010   -5.8960    3.1220 hc        1 MOL      0.093758
     34 H15         0.4690   -4.6630    2.2550 hc        1 MOL      0.093758
     35 H16        -1.1110   -5.9160   -0.3250 hc        1 MOL      0.051986
     36 H17        -0.2290   -6.3540   -1.8550 hc        1 MOL      0.051986
     37 H18        -0.1560   -7.3450   -0.4380 hc        1 MOL      0.051986
     38 N3          4.0160   -4.0320   -0.9380 n         1 MOL     -0.034913
     39 C13         4.8540   -4.1400   -2.0930 c3        1 MOL     -0.052367
     40 C14         6.0890   -3.2620   -1.9860 c         1 MOL      0.447531
     41 O6          6.9440   -3.4320   -2.8430 o         1 MOL     -0.548368
     42 C15         4.0040   -3.7870   -3.2770 c3        1 MOL     -0.226255
     43 C16         3.3940   -2.4220   -3.2730 c         1 MOL      0.809049
     44 O7          2.6140   -2.1510   -4.2010 o         1 MOL     -0.709827
     45 O8          3.5110   -1.5820   -2.3190 o         1 MOL     -0.709827
     46 H19         3.1770   -3.4890   -0.9990 hn        1 MOL      0.105209
     47 H20         5.1900   -5.1620   -2.2370 h1        1 MOL      0.097480
     48 H21         3.2060   -4.5160   -3.2180 hc        1 MOL      0.050933
     49 H22         4.5120   -3.8640   -4.2400 hc        1 MOL      0.050933
     50 N4          6.3210   -2.5000   -0.8930 n         1 MOL     -0.144755
     51 C17         7.6040   -1.8940   -0.4640 c3        1 MOL     -0.155841
     52 C18         7.8360   -0.5750   -1.1610 c         1 MOL      0.713765
     53 O9          8.8770   -0.4500   -1.8010 o         1 MOL     -0.623897
     54 H23         5.5570   -2.2940   -0.2710 hn        1 MOL      0.209131
     55 H24         8.4470   -2.4910   -0.8200 h1        1 MOL      0.066812
     56 H25         7.7080   -1.7560    0.6170 h1        1 MOL      0.066812
     57 N5          6.9320    0.4250   -0.9900 n         1 MOL     -0.458446
     58 C19         6.9990    1.7910   -1.6550 c3        1 MOL      0.372536
     59 C20         7.0730    2.9820   -0.6180 c         1 MOL      0.248830
     60 O10         7.4710    4.1080   -0.9870 o         1 MOL     -0.543574
     61 C21         5.9110    2.0350   -2.7580 c3        1 MOL     -0.430418
     62 C22         4.5030    1.8750   -2.1660 c         1 MOL      0.773953
     63 O11         4.3170    1.9000   -0.9410 o         1 MOL     -0.719134
     64 O12         3.5970    1.5440   -2.9800 o         1 MOL     -0.719134
     65 H26         6.1750    0.2130   -0.3690 hn        1 MOL     -0.006474
     66 H27         7.9500    1.8630   -2.1960 h1        1 MOL      0.008096
     67 H28         6.1100    1.3810   -3.5940 hc        1 MOL      0.109056
     68 H29         6.0370    3.1010   -2.9720 hc        1 MOL      0.109056
     69 N6          6.6560    2.7560    0.6010 n         1 MOL     -0.052035
     70 C23         6.5140    3.8260    1.5850 c3        1 MOL     -0.272632
     71 C24         5.1220    4.4190    1.7600 c         1 MOL      0.585991
     72 O13         4.8730    5.2900    2.5740 o         1 MOL     -0.594707
     73 H30         6.4050    1.8350    0.9380 hn        1 MOL      0.155776
     74 H31         7.1820    4.6830    1.4400 h1        1 MOL      0.118232
     75 H32         6.7140    3.3630    2.5490 h1        1 MOL      0.118232
     76 N7          4.1190    3.8750    1.0050 n         1 MOL     -0.325027
     77 C25         2.7550    4.2590    1.0230 c3        1 MOL     -0.011058
     78 C26         1.7640    3.1190    1.3460 c         1 MOL      0.555005
     79 O14         2.0990    1.9590    1.2240 o         1 MOL     -0.604596
     80 C27         2.4020    4.9290   -0.3070 c3        1 MOL      0.094515
     81 C28         3.3320    6.1820   -0.5530 c3        1 MOL     -0.389569
     82 C29         2.9420    7.1070   -1.6880 c         1 MOL      0.694444
     83 N8          3.0210    6.7700   -2.9460 n         1 MOL     -0.784646
     84 O15         2.4330    8.2090   -1.5730 o         1 MOL     -0.587543
     85 H33         4.3740    3.2480    0.2640 hn        1 MOL      0.310960
     86 H34         2.6460    5.0700    1.7460 h1        1 MOL      0.062441
     87 H35         1.3900    5.3280   -0.3660 hc        1 MOL      0.015306
     88 H36         2.5900    4.1840   -1.0810 hc        1 MOL      0.015306
     89 H37         4.3930    5.9250   -0.5580 hc        1 MOL      0.115666
     90 H38         3.1660    6.7270    0.3790 hc        1 MOL      0.115666
     91 H39         3.1260    5.8180   -3.2610 hn        1 MOL      0.351302
     92 H40         2.9610    7.4640   -3.6730 hn        1 MOL      0.351302
     93 N9          0.5690    3.4760    1.8110 n         1 MOL     -0.445162
     94 C30        -0.5040    2.5620    2.0190 c3        1 MOL      0.057022
     95 C31        -1.6110    2.9780    1.0040 c         1 MOL      0.407183
     96 O16        -2.1270    4.1010    1.0850 o         1 MOL     -0.533796
     97 C32        -0.9820    2.5890    3.5200 c3        1 MOL      0.261513
     98 C33        -2.2240    1.7380    3.8200 c3        1 MOL     -0.291684
     99 C34         0.1660    2.0510    4.3690 c3        1 MOL     -0.291684
    100 H41         0.3890    4.4570    1.9900 hn        1 MOL      0.271286
    101 H42        -0.2320    1.5060    1.9170 h1        1 MOL      0.168769
    102 H43        -1.1690    3.6280    3.7860 hc        1 MOL     -0.037257
    103 H44        -2.4700    1.7300    4.8850 hc        1 MOL      0.054621
    104 H45        -3.1250    2.0280    3.2670 hc        1 MOL      0.054621
    105 H46        -1.9690    0.6990    3.6390 hc        1 MOL      0.054621
    106 H47         0.9920    2.7500    4.2020 hc        1 MOL      0.054621
    107 H48        -0.2020    2.0590    5.3990 hc        1 MOL      0.054621
    108 H49         0.3860    1.0490    4.0200 hc        1 MOL      0.054621
    109 N10        -1.7640    2.1030   -0.0480 n         1 MOL     -0.387994
    110 C35        -2.9410    1.9270   -0.9470 c3        1 MOL      0.093188
    111 C36        -4.2310    1.6490   -0.1130 c         1 MOL      0.429677
    112 O17        -4.1200    1.0770    0.9180 o         1 MOL     -0.291030
    113 C37        -2.7090    0.7440   -1.9760 c3        1 MOL     -0.187927
    114 C38        -3.6370    0.5430   -3.1260 c         1 MOL      0.553015
    115 N11        -3.1580   -0.1940   -4.0640 n         1 MOL     -0.590423
    116 O18        -4.7350    1.0240   -3.1620 o         1 MOL     -0.569982
    117 H50        -1.2300    1.2600    0.1290 hn        1 MOL      0.263926
    118 H51        -3.1790    2.8100   -1.5330 h1        1 MOL      0.063633
    119 H52        -2.5380   -0.1740   -1.4230 hc        1 MOL      0.048939
    120 H53        -1.7310    0.8560   -2.4480 hc        1 MOL      0.048939
    121 H54        -2.1490   -0.2620   -4.0920 hn        1 MOL      0.328526
    122 H55        -3.7060   -0.2420   -4.9060 hn        1 MOL      0.328526
    123 N12        -5.3890    2.1130   -0.6260 n         1 MOL     -0.609272
    124 C39        -6.6720    1.6810   -0.1630 c3        1 MOL      0.365833
    125 C40        -6.8010    0.1440   -0.0880 c         1 MOL      0.520072
    126 O19        -7.3360   -0.3790    0.8590 o         1 MOL     -0.543947
    127 C41        -7.7170    2.3280   -1.0790 c3        1 MOL     -0.278763
    128 C42        -9.1660    2.1300   -0.5540 ca        1 MOL      0.113991
    129 C43        -9.4890    2.6480    0.6820 ca        1 MOL     -0.239601
    130 C44       -10.1270    1.3140   -1.2440 ca        1 MOL     -0.239601
    131 C45       -10.5910    2.3070    1.4010 ca        1 MOL     -0.181631
    132 C46       -11.3620    0.9620   -0.6220 ca        1 MOL     -0.181631
    133 C47       -11.5610    1.4760    0.6960 ca        1 MOL      0.259870
    134 O20       -12.6890    1.1880    1.4030 oh        1 MOL     -0.502078
    135 H56        -5.3240    2.6490   -1.4820 hn        1 MOL      0.311219
    136 H57        -6.8410    2.0210    0.8510 h1        1 MOL     -0.005252
    137 H58        -7.6940    1.9250   -2.0930 hc        1 MOL      0.084102
    138 H59        -7.4960    3.3990   -1.0890 hc        1 MOL      0.084102
    139 H60        -8.7310    3.1970    1.2200 ha        1 MOL      0.159444
    140 H61        -9.8930    0.8550   -2.1980 ha        1 MOL      0.159444
    141 H62       -10.8190    2.7600    2.3530 ha        1 MOL      0.134774
    142 H63       -12.1080    0.3400   -1.0920 ha        1 MOL      0.134774
    143 H64       -13.0930    0.4000    1.0340 ho        1 MOL      0.363087
    144 N13        -6.1700   -0.5740   -1.0120 n         1 MOL     -0.410126
    145 C48        -6.2460   -2.0920   -1.0380 c3        1 MOL      0.009511
    146 C49        -5.3570   -2.6560    0.0530 c         1 MOL      0.330109
    147 O21        -5.5590   -3.7020    0.5660 o         1 MOL     -0.520431
    148 C50        -5.7110   -2.4930   -2.4700 c3        1 MOL      0.219891
    149 C51        -6.5600   -1.8510   -3.5970 c3        1 MOL     -0.371780
    150 C52        -6.0940   -2.1200   -5.0190 c         1 MOL      0.851956
    151 O22        -6.6080   -1.5590   -5.9910 o         1 MOL     -0.770874
    152 O23        -5.2930   -3.0290   -5.2270 o         1 MOL     -0.770874
    153 H65        -5.7920   -0.0750   -1.8030 hn        1 MOL      0.365769
    154 H66        -7.2610   -2.4450   -0.8620 h1        1 MOL      0.080194
    155 H67        -5.7300   -3.5800   -2.5240 hc        1 MOL     -0.038839
    156 H68        -4.6970   -2.0950   -2.4470 hc        1 MOL     -0.038839
    157 H69        -6.6730   -0.7740   -3.4680 hc        1 MOL      0.028328
    158 H70        -7.5770   -2.2100   -3.4440 hc        1 MOL      0.028328
    159 N14        -4.3700   -1.8920    0.4750 n         1 MOL     -0.003557
    160 C53        -3.5230   -2.2850    1.6450 c3        1 MOL     -0.088488
    161 C54        -4.1820   -1.8840    3.0050 c         1 MOL      0.438183
    162 O24        -4.0100   -2.5940    4.0240 o         1 MOL     -0.582543
    163 C55        -2.1320   -1.5900    1.7200 c3        1 MOL     -0.029570
    164 C56        -1.1630   -2.2790    0.7250 c3        1 MOL      0.015148
    165 C57         0.0470   -1.3890    0.2900 c         1 MOL      0.648485
    166 O25         1.1520   -1.9520    0.1650 o         1 MOL     -0.710614
    167 O26        -0.0520   -0.1770    0.0840 o         1 MOL     -0.710614
    168 H71        -4.2770   -0.9660    0.0800 hn        1 MOL      0.038234
    169 H72        -3.3290   -3.3600    1.7300 h1        1 MOL      0.094787
    170 H73        -1.7550   -1.6860    2.7360 hc        1 MOL      0.049422
    171 H74        -2.2430   -0.5300    1.4780 hc        1 MOL      0.049422
    172 H75        -1.7560   -2.4290   -0.1770 hc        1 MOL      0.000756
    173 H76        -0.7750   -3.2250    1.1010 hc        1 MOL      0.000756
    174 N15        -5.0170   -0.8800    2.9710 n         1 MOL     -0.068634
    175 C58        -5.9240   -0.2360    4.0120 c3        1 MOL     -0.217118
    176 H77        -6.8230    0.1420    3.5260 h1        1 MOL      0.086124
    177 H78        -6.2010   -0.9770    4.7620 h1        1 MOL      0.086124
    178 H79        -5.3980    0.5890    4.4930 h1        1 MOL      0.086124
    179 H80        -5.0010   -0.2680    2.1670 hn        1 MOL      0.061269
    180 Ca1         2.3770    0.2220   -0.8470 Ca        1 MOL      1.727031
    181 O27         0.7920   -0.7410   -3.0690 oh        1 MOL     -0.818280
    182 H81         0.0710   -1.3650   -3.0250 ho        1 MOL      0.383891
    183 H82         1.4970   -1.2120   -3.5240 ho        1 MOL      0.383891
    184 O28         1.0390    2.2210   -1.9530 oh        1 MOL     -0.818280
    185 H83         1.1010    1.8920   -2.8530 ho        1 MOL      0.383891
    186 H84         1.5410    3.0390   -1.9600 ho        1 MOL      0.383891
@<TRIPOS>BOND
     1    1    2 1   
     2    1    4 1   
     3    1    5 1   
     4    1    6 1   
     5    2    3 2   
     6    2    7 1   
     7    7    8 1   
     8    7   15 1   
     9    8    9 1   
    10    8   11 1   
    11    8   16 1   
    12    9   10 2   
    13    9   19 1   
    14   11   12 1   
    15   11   17 1   
    16   11   18 1   
    17   12   13 1   
    18   12   14 1   
    19   19   20 1   
    20   19   27 1   
    21   20   21 1   
    22   20   23 1   
    23   20   28 1   
    24   21   22 2   
    25   21   38 1   
    26   23   24 1   
    27   23   25 1   
    28   23   29 1   
    29   24   26 1   
    30   24   30 1   
    31   24   31 1   
    32   25   32 1   
    33   25   33 1   
    34   25   34 1   
    35   26   35 1   
    36   26   36 1   
    37   26   37 1   
    38   38   39 1   
    39   38   46 1   
    40   39   40 1   
    41   39   42 1   
    42   39   47 1   
    43   40   41 2   
    44   40   50 1   
    45   42   43 1   
    46   42   48 1   
    47   42   49 1   
    48   43   44 1   
    49   43   45 1   
    50   50   51 1   
    51   50   54 1   
    52   51   52 1   
    53   51   55 1   
    54   51   56 1   
    55   52   53 2   
    56   52   57 1   
    57   57   58 1   
    58   57   65 1   
    59   58   59 1   
    60   58   61 1   
    61   58   66 1   
    62   59   60 2   
    63   59   69 1   
    64   61   62 1   
    65   61   67 1   
    66   61   68 1   
    67   62   63 1   
    68   62   64 1   
    69   69   70 1   
    70   69   73 1   
    71   70   71 1   
    72   70   74 1   
    73   70   75 1   
    74   71   72 2   
    75   71   76 1   
    76   76   77 1   
    77   76   85 1   
    78   77   78 1   
    79   77   80 1   
    80   77   86 1   
    81   78   79 2   
    82   78   93 1   
    83   80   81 1   
    84   80   87 1   
    85   80   88 1   
    86   81   82 1   
    87   81   89 1   
    88   81   90 1   
    89   82   83 1   
    90   82   84 2   
    91   83   91 1   
    92   83   92 1   
    93   93   94 1   
    94   93  100 1   
    95   94   95 1   
    96   94   97 1   
    97   94  101 1   
    98   95   96 2   
    99   95  109 1   
   100   97   98 1   
   101   97   99 1   
   102   97  102 1   
   103   98  103 1   
   104   98  104 1   
   105   98  105 1   
   106   99  106 1   
   107   99  107 1   
   108   99  108 1   
   109  109  110 1   
   110  109  117 1   
   111  110  111 1   
   112  110  113 1   
   113  110  118 1   
   114  111  112 2   
   115  111  123 1   
   116  113  114 1   
   117  113  119 1   
   118  113  120 1   
   119  114  115 1   
   120  114  116 2   
   121  115  121 1   
   122  115  122 1   
   123  123  124 1   
   124  123  135 1   
   125  124  125 1   
   126  124  127 1   
   127  124  136 1   
   128  125  126 2   
   129  125  144 1   
   130  127  128 1   
   131  127  137 1   
   132  127  138 1   
   133  128  129 ar  
   134  128  130 ar  
   135  129  131 ar  
   136  129  139 1   
   137  130  132 ar  
   138  130  140 1   
   139  131  133 ar  
   140  131  141 1   
   141  132  133 ar  
   142  132  142 1   
   143  133  134 1   
   144  134  143 1   
   145  144  145 1   
   146  144  153 1   
   147  145  146 1   
   148  145  148 1   
   149  145  154 1   
   150  146  147 2   
   151  146  159 1   
   152  148  149 1   
   153  148  155 1   
   154  148  156 1   
   155  149  150 1   
   156  149  157 1   
   157  149  158 1   
   158  150  151 1   
   159  150  152 1   
   160  159  160 1   
   161  159  168 1   
   162  160  161 1   
   163  160  163 1   
   164  160  169 1   
   165  161  162 2   
   166  161  174 1   
   167  163  164 1   
   168  163  170 1   
   169  163  171 1   
   170  164  165 1   
   171  164  172 1   
   172  164  173 1   
   173  165  166 1   
   174  165  167 1   
   175  174  175 1   
   176  174  179 1   
   177  175  176 1   
   178  175  177 1   
   179  175  178 1   
   180  181  182 1   
   181  181  183 1   
   182  184  185 1   
   183  184  186 1   
@<TRIPOS>SUBSTRUCTURE
     1 MOL         1 TEMP              0 ****  ****    0 ROOT
