@<TRIPOS>MOLECULE
MOL
  179   176     1     0     0
SMALL
resp


@<TRIPOS>ATOM
      1 C1          2.1610    1.7390    5.8900 c3        1 MOL     -0.317236
      2 C2          1.4660    1.7540    4.5150 c         1 MOL      0.687015
      3 O1          2.1410    1.6110    3.5090 o         1 MOL     -0.568176
      4 H1          1.4530    1.4070    6.6510 hc        1 MOL      0.086122
      5 H2          3.0090    1.0560    5.8620 hc        1 MOL      0.086122
      6 H3          2.5100    2.7430    6.1320 hc        1 MOL      0.086122
      7 N1          0.1150    1.8090    4.3780 n         1 MOL     -0.576154
      8 C3         -0.5870    1.9160    3.0500 c3        1 MOL      0.011323
      9 C4         -0.5840    3.3860    2.6560 c         1 MOL      0.577367
     10 O2         -1.1640    4.1820    3.3250 o         1 MOL     -0.552585
     11 C5         -2.0070    1.2850    3.1800 c3        1 MOL      0.001099
     12 C6         -2.7640    1.3240    1.8510 c         1 MOL      0.653293
     13 O3         -2.0600    1.5170    0.8130 o         1 MOL     -0.712794
     14 O4         -3.9500    1.0400    1.9040 o         1 MOL     -0.712794
     15 H4         -0.4780    1.7980    5.1930 hn        1 MOL      0.313448
     16 H5          0.0150    1.4110    2.2900 h1        1 MOL      0.075055
     17 H6         -2.5460    1.8990    3.9080 hc        1 MOL      0.007997
     18 H7         -1.9020    0.2910    3.6120 hc        1 MOL      0.007997
     19 N2          0.1840    3.7810    1.6120 n         1 MOL     -0.252882
     20 C7          0.7140    5.1170    1.2380 c3        1 MOL     -0.120007
     21 C8         -0.3600    5.7630    0.4770 c         1 MOL      0.552078
     22 O5         -0.6650    6.9080    0.7310 o         1 MOL     -0.580659
     23 C9          2.0770    4.8940    0.4800 c3        1 MOL     -0.106737
     24 C10         2.4960    6.2450   -0.1170 c3        1 MOL     -0.209958
     25 C11         3.6090    5.8620   -1.1810 c3        1 MOL     -0.052227
     26 C12         4.2310    7.1780   -1.7690 c3        1 MOL     -0.036440
     27 N3          3.3180    7.9920   -2.5860 n4        1 MOL     -0.458708
     28 H8          0.5680    3.0870    0.9880 hn        1 MOL      0.167756
     29 H9          0.9260    5.7910    2.0690 h1        1 MOL      0.104438
     30 H10         1.7820    4.2430   -0.3440 hc        1 MOL      0.133538
     31 H11         2.8160    4.5090    1.1800 hc        1 MOL      0.133538
     32 H12         2.8850    6.9060    0.6580 hc        1 MOL      0.085005
     33 H13         1.6540    6.7840   -0.5420 hc        1 MOL      0.085005
     34 H14         3.1840    5.2320   -1.9580 hc        1 MOL      0.055356
     35 H15         4.4190    5.2600   -0.7620 hc        1 MOL      0.055356
     36 H16         5.1020    6.9220   -2.3730 hx        1 MOL      0.123703
     37 H17         4.6920    7.6900   -0.9230 hx        1 MOL      0.123703
     38 H18         2.5430    8.4070   -2.0940 hn        1 MOL      0.358305
     39 H19         3.8250    8.7090   -3.0690 hn        1 MOL      0.358305
     40 H20         2.8230    7.3830   -3.2330 hn        1 MOL      0.358305
     41 N4         -0.9420    4.9650   -0.3930 n         1 MOL     -0.309328
     42 C13        -2.0200    5.3120   -1.3170 c3        1 MOL      0.002914
     43 C14        -3.4130    4.7640   -0.8530 c         1 MOL      0.414551
     44 O6         -4.4300    4.9650   -1.5510 o         1 MOL     -0.535126
     45 C15        -1.6400    4.9230   -2.7220 c3        1 MOL     -0.239645
     46 C16        -1.4580    3.4350   -3.0810 c         1 MOL      0.837162
     47 O7         -1.8570    2.5140   -2.3350 o         1 MOL     -0.730638
     48 O8         -0.9700    3.2020   -4.1720 o         1 MOL     -0.730638
     49 H21        -0.5840    4.0180   -0.4190 hn        1 MOL      0.233330
     50 H22        -2.1240    6.3990   -1.3110 h1        1 MOL      0.098138
     51 H23        -0.7600    5.5030   -2.9950 hc        1 MOL      0.056072
     52 H24        -2.3900    5.2600   -3.4410 hc        1 MOL      0.056072
     53 N5         -3.5310    4.1520    0.3370 n         1 MOL     -0.191027
     54 C17        -4.7760    3.9490    1.0860 c3        1 MOL     -0.023822
     55 C18        -5.8030    3.0080    0.4190 c         1 MOL      0.502311
     56 O9         -7.0200    3.1740    0.6830 o         1 MOL     -0.568109
     57 H25        -2.7090    4.0340    0.9020 hn        1 MOL      0.192224
     58 H26        -5.2840    4.8820    1.2980 h1        1 MOL      0.067993
     59 H27        -4.5420    3.5760    2.0840 h1        1 MOL      0.067993
     60 N6         -5.3690    2.0710   -0.4890 n         1 MOL     -0.174909
     61 C19        -6.2250    1.2060   -1.2860 c3        1 MOL     -0.035927
     62 C20        -6.5340   -0.0950   -0.5000 c         1 MOL      0.199919
     63 O10        -7.1450   -1.1090   -0.9980 o         1 MOL     -0.428061
     64 C21        -5.5420    0.8720   -2.7130 c3        1 MOL     -0.315766
     65 C22        -4.5560   -0.2610   -2.6720 c         1 MOL      0.694943
     66 N7         -4.9010   -1.3450   -3.3560 n         1 MOL     -0.775527
     67 O11        -3.5440   -0.1510   -1.9310 o         1 MOL     -0.673719
     68 H28        -4.3900    1.8360   -0.4850 hn        1 MOL      0.130290
     69 H29        -7.2020    1.6320   -1.5010 h1        1 MOL      0.164670
     70 H30        -4.9580    1.7070   -3.1060 hc        1 MOL      0.132138
     71 H31        -6.3210    0.6250   -3.4320 hc        1 MOL      0.132138
     72 H32        -5.7950   -1.4330   -3.8150 hn        1 MOL      0.380900
     73 H33        -4.2800   -2.1440   -3.3960 hn        1 MOL      0.380900
     74 N8         -6.2100   -0.1090    0.8210 n         1 MOL     -0.083634
     75 C23        -6.5850   -1.3520    1.6260 c3        1 MOL     -0.437981
     76 C24        -5.5570   -2.5250    1.6470 c         1 MOL      0.686223
     77 O12        -5.8020   -3.5950    2.1450 o         1 MOL     -0.528917
     78 H34        -5.7920    0.6790    1.2930 hn        1 MOL      0.283100
     79 H35        -7.4690   -1.8630    1.2340 h1        1 MOL      0.170878
     80 H36        -6.7010   -1.0920    2.6720 h1        1 MOL      0.170878
     81 N9         -4.3690   -2.2230    1.0410 n         1 MOL     -0.547239
     82 C25        -3.2890   -3.2150    0.9260 c3        1 MOL      0.049003
     83 C26        -1.9040   -2.5340    0.9580 c         1 MOL      0.567121
     84 O13        -1.6960   -1.3550    0.6690 o         1 MOL     -0.685839
     85 C27        -3.3610   -3.8990   -0.4480 c3        1 MOL      0.224797
     86 C28        -4.5700   -4.7230   -0.5990 ca        1 MOL     -0.291742
     87 C29        -5.7370   -4.1780   -1.1810 ca        1 MOL     -0.024785
     88 C30        -4.5610   -6.0550   -0.1490 ca        1 MOL     -0.024785
     89 C31        -6.9080   -4.9570   -1.3910 ca        1 MOL     -0.310428
     90 C32        -5.7300   -6.8110   -0.3930 ca        1 MOL     -0.310428
     91 C33        -6.8810   -6.2830   -0.9520 ca        1 MOL      0.431997
     92 O14        -7.9150   -7.0500   -1.2710 oh        1 MOL     -0.459390
     93 H37        -4.2420   -1.3240    0.6030 hn        1 MOL      0.434319
     94 H38        -3.4470   -3.9440    1.7170 h1        1 MOL      0.077021
     95 H39        -2.4470   -4.4400   -0.7060 hc        1 MOL     -0.013012
     96 H40        -3.4430   -3.0970   -1.1920 hc        1 MOL     -0.013012
     97 H41        -5.6730   -3.1640   -1.5330 ha        1 MOL      0.093291
     98 H42        -3.6640   -6.4740    0.2800 ha        1 MOL      0.093291
     99 H43        -7.7120   -4.5110   -1.9660 ha        1 MOL      0.143930
    100 H44        -5.7750   -7.8480   -0.0900 ha        1 MOL      0.143930
    101 H45        -7.6590   -7.9460   -1.0270 ho        1 MOL      0.321988
    102 N10        -0.8740   -3.2940    1.2970 n         1 MOL     -0.481651
    103 C34         0.5250   -2.9130    1.4020 c3        1 MOL      0.106589
    104 C35         1.3800   -3.6280    0.3070 c         1 MOL      0.439510
    105 O15         1.2320   -4.9020    0.2280 o         1 MOL     -0.562444
    106 C36         1.1250   -3.1540    2.8150 c3        1 MOL      0.116026
    107 C37         0.1590   -2.6780    3.9180 c3        1 MOL      0.243035
    108 C38         2.5770   -2.6100    2.9250 c3        1 MOL     -0.345372
    109 C39         0.5790   -3.0750    5.2860 c3        1 MOL     -0.223956
    110 H46        -1.1530   -4.2580    1.4560 hn        1 MOL      0.265219
    111 H47         0.6090   -1.8490    1.1680 h1        1 MOL      0.041575
    112 H48         1.2300   -4.2380    2.9160 hc        1 MOL     -0.008666
    113 H49        -0.8220   -3.1420    3.8170 hc        1 MOL     -0.037060
    114 H50         0.0350   -1.5930    3.8860 hc        1 MOL     -0.037060
    115 H51         3.0560   -2.7150    3.8930 hc        1 MOL      0.082353
    116 H52         3.2790   -3.1630    2.3070 hc        1 MOL      0.082353
    117 H53         2.5650   -1.5510    2.6750 hc        1 MOL      0.082353
    118 H54         1.6220   -2.8560    5.5300 hc        1 MOL      0.040278
    119 H55         0.0240   -2.3430    5.8760 hc        1 MOL      0.040278
    120 H56         0.2810   -4.0660    5.6120 hc        1 MOL      0.040278
    121 N11         2.2890   -2.8850   -0.3390 n         1 MOL     -0.182745
    122 C40         3.1610   -3.4950   -1.3780 c3        1 MOL      0.067054
    123 C41         4.5670   -3.7090   -0.8030 c         1 MOL      0.326458
    124 O16         5.0110   -2.9340    0.0540 o         1 MOL     -0.371210
    125 C42         3.0920   -2.7410   -2.6780 c3        1 MOL     -0.003775
    126 O17         3.3550   -1.3050   -2.5530 oh        1 MOL     -0.572388
    127 H57         2.2730   -1.8740   -0.3220 hn        1 MOL      0.290345
    128 H58         2.7360   -4.4490   -1.6800 h1        1 MOL      0.022158
    129 H59         2.0850   -2.8970   -3.0650 h1        1 MOL      0.075799
    130 H60         3.8240   -3.2170   -3.3110 h1        1 MOL      0.075799
    131 H61         2.6140   -0.9300   -2.0740 ho        1 MOL      0.380195
    132 N12         5.4240   -4.4650   -1.4880 n         1 MOL     -0.324382
    133 C43         6.8350   -4.5670   -1.0560 c3        1 MOL      0.035959
    134 C44         7.6470   -3.2780   -1.2520 c         1 MOL      0.500123
    135 O18         8.4740   -2.8850   -0.4220 o         1 MOL     -0.530782
    136 C45         7.4470   -5.8200   -1.6860 c3        1 MOL     -0.323748
    137 H62         5.1570   -4.9890   -2.3100 hn        1 MOL      0.266002
    138 H63         6.8830   -4.8510    0.0010 h1        1 MOL      0.121074
    139 H64         7.0750   -6.7650   -1.2860 hc        1 MOL      0.099898
    140 H65         7.3700   -5.7850   -2.7780 hc        1 MOL      0.099898
    141 H66         8.5310   -5.7500   -1.5590 hc        1 MOL      0.099898
    142 N13         7.3210   -2.4820   -2.3020 n         1 MOL     -0.477260
    143 C46         7.7380   -1.0130   -2.3470 c3        1 MOL      0.309994
    144 C47         7.1690   -0.0550   -1.2290 c         1 MOL      0.340334
    145 O19         7.7990    0.8760   -0.7970 o         1 MOL     -0.513967
    146 C48         7.4640   -0.6460   -3.7110 c3        1 MOL     -0.530444
    147 H67         6.6420   -2.8540   -2.9550 hn        1 MOL      0.286580
    148 H68         8.8060   -0.9620   -2.1730 h1        1 MOL      0.066987
    149 H69         8.2110   -1.2480   -4.2350 hc        1 MOL      0.131414
    150 H70         6.4560   -0.9340   -3.9900 hc        1 MOL      0.131414
    151 H71         7.5590    0.4380   -3.8300 hc        1 MOL      0.131414
    152 N14         5.9720   -0.3580   -0.7090 n         1 MOL     -0.070837
    153 C49         5.4900    0.3830    0.5130 c3        1 MOL     -0.252205
    154 C50         6.2190   -0.0320    1.8220 c         1 MOL      0.642061
    155 O20         6.4360    0.8830    2.6010 o         1 MOL     -0.569362
    156 C51         3.9790    0.2770    0.7520 c3        1 MOL      0.442298
    157 C52         3.2530    1.2400   -0.2400 c3        1 MOL     -0.293911
    158 C53         1.7840    0.9040   -0.4200 c         1 MOL      0.925947
    159 O21         1.4990   -0.2150   -0.8460 o         1 MOL     -0.862451
    160 O22         0.8730    1.7740   -0.2680 o         1 MOL     -0.862451
    161 H72         5.3430   -1.0550   -1.0730 hn        1 MOL      0.140286
    162 H73         5.6370    1.4470    0.3190 h1        1 MOL      0.101167
    163 H74         3.7050    0.5190    1.7770 hc        1 MOL     -0.108592
    164 H75         3.7250   -0.7780    0.6380 hc        1 MOL     -0.108592
    165 H76         3.7040    1.0620   -1.2180 hc        1 MOL      0.035579
    166 H77         3.3780    2.2480    0.1510 hc        1 MOL      0.035579
    167 N15         6.4110   -1.3250    2.0420 n         1 MOL     -0.249554
    168 C54         7.4110   -1.7490    3.0340 c3        1 MOL     -0.356379
    169 H78         8.4090   -1.4990    2.6720 h1        1 MOL      0.134501
    170 H79         7.2280   -1.2360    3.9780 h1        1 MOL      0.134501
    171 H80         7.3400   -2.8270    3.1850 h1        1 MOL      0.134501
    172 H81         5.9680   -2.0610    1.5140 hn        1 MOL      0.199024
    173 Ca1        -1.0570    0.2560   -1.2250 Ca        1 MOL      1.831203
    174 O23        -0.2750    0.7130   -3.8000 oh        1 MOL     -0.899031
    175 H82         0.0010    0.2690   -4.6070 ho        1 MOL      0.415257
    176 H83        -0.5420    1.5840   -4.0820 ho        1 MOL      0.415257
    177 O24        -1.1980   -2.0630   -2.7030 oh        1 MOL     -0.899031
    178 H84        -0.8970   -2.9680   -2.8040 ho        1 MOL      0.415257
    179 H85        -1.6570   -1.8700   -3.5300 ho        1 MOL      0.415257
@<TRIPOS>BOND
     1    1    2 1   
     2    1    4 1   
     3    1    5 1   
     4    1    6 1   
     5    2    3 2   
     6    2    7 1   
     7    7    8 1   
     8    7   15 1   
     9    8    9 1   
    10    8   11 1   
    11    8   16 1   
    12    9   10 2   
    13    9   19 1   
    14   11   12 1   
    15   11   17 1   
    16   11   18 1   
    17   12   13 1   
    18   12   14 1   
    19   19   20 1   
    20   19   28 1   
    21   20   21 1   
    22   20   23 1   
    23   20   29 1   
    24   21   22 2   
    25   21   41 1   
    26   23   24 1   
    27   23   30 1   
    28   23   31 1   
    29   24   25 1   
    30   24   32 1   
    31   24   33 1   
    32   25   26 1   
    33   25   34 1   
    34   25   35 1   
    35   26   27 1   
    36   26   36 1   
    37   26   37 1   
    38   27   38 1   
    39   27   39 1   
    40   27   40 1   
    41   41   42 1   
    42   41   49 1   
    43   42   43 1   
    44   42   45 1   
    45   42   50 1   
    46   43   44 2   
    47   43   53 1   
    48   45   46 1   
    49   45   51 1   
    50   45   52 1   
    51   46   47 1   
    52   46   48 1   
    53   53   54 1   
    54   53   57 1   
    55   54   55 1   
    56   54   58 1   
    57   54   59 1   
    58   55   56 2   
    59   55   60 1   
    60   60   61 1   
    61   60   68 1   
    62   61   62 1   
    63   61   64 1   
    64   61   69 1   
    65   62   63 2   
    66   62   74 1   
    67   64   65 1   
    68   64   70 1   
    69   64   71 1   
    70   65   66 1   
    71   65   67 2   
    72   66   72 1   
    73   66   73 1   
    74   74   75 1   
    75   74   78 1   
    76   75   76 1   
    77   75   79 1   
    78   75   80 1   
    79   76   77 2   
    80   76   81 1   
    81   81   82 1   
    82   81   93 1   
    83   82   83 1   
    84   82   85 1   
    85   82   94 1   
    86   83   84 2   
    87   83  102 1   
    88   85   86 1   
    89   85   95 1   
    90   85   96 1   
    91   86   87 ar  
    92   86   88 ar  
    93   87   89 ar  
    94   87   97 1   
    95   88   90 ar  
    96   88   98 1   
    97   89   91 ar  
    98   89   99 1   
    99   90   91 ar  
   100   90  100 1   
   101   91   92 1   
   102   92  101 1   
   103  102  103 1   
   104  102  110 1   
   105  103  104 1   
   106  103  106 1   
   107  103  111 1   
   108  104  105 2   
   109  104  121 1   
   110  106  107 1   
   111  106  108 1   
   112  106  112 1   
   113  107  109 1   
   114  107  113 1   
   115  107  114 1   
   116  108  115 1   
   117  108  116 1   
   118  108  117 1   
   119  109  118 1   
   120  109  119 1   
   121  109  120 1   
   122  121  122 1   
   123  121  127 1   
   124  122  123 1   
   125  122  125 1   
   126  122  128 1   
   127  123  124 2   
   128  123  132 1   
   129  125  126 1   
   130  125  129 1   
   131  125  130 1   
   132  126  131 1   
   133  132  133 1   
   134  132  137 1   
   135  133  134 1   
   136  133  136 1   
   137  133  138 1   
   138  134  135 2   
   139  134  142 1   
   140  136  139 1   
   141  136  140 1   
   142  136  141 1   
   143  142  143 1   
   144  142  147 1   
   145  143  144 1   
   146  143  146 1   
   147  143  148 1   
   148  144  145 2   
   149  144  152 1   
   150  146  149 1   
   151  146  150 1   
   152  146  151 1   
   153  152  153 1   
   154  152  161 1   
   155  153  154 1   
   156  153  156 1   
   157  153  162 1   
   158  154  155 2   
   159  154  167 1   
   160  156  157 1   
   161  156  163 1   
   162  156  164 1   
   163  157  158 1   
   164  157  165 1   
   165  157  166 1   
   166  158  159 1   
   167  158  160 1   
   168  167  168 1   
   169  167  172 1   
   170  168  169 1   
   171  168  170 1   
   172  168  171 1   
   173  174  175 1   
   174  174  176 1   
   175  177  178 1   
   176  177  179 1   
@<TRIPOS>SUBSTRUCTURE
     1 MOL         1 TEMP              0 ****  ****    0 ROOT
