@<TRIPOS>MOLECULE
MOL
  175   173     1     0     0
SMALL
resp


@<TRIPOS>ATOM
      1 C1          0.2720    4.3760    5.4690 c3        1 MOL     -0.436745
      2 C2         -0.1480    4.3220    3.9460 c         1 MOL      0.637795
      3 O1          0.7040    4.2290    3.0220 o         1 MOL     -0.534949
      4 H1          0.9530    5.2120    5.6270 hc        1 MOL      0.110105
      5 H2         -0.6150    4.5080    6.0870 hc        1 MOL      0.110105
      6 H3          0.7710    3.4460    5.7410 hc        1 MOL      0.110105
      7 N1         -1.4630    4.2350    3.7100 n         1 MOL     -0.560781
      8 C3         -2.0110    3.8330    2.3970 c3        1 MOL      0.091374
      9 C4         -1.9730    4.9630    1.3970 c         1 MOL      0.671170
     10 O2         -1.9440    6.1380    1.7040 o         1 MOL     -0.586430
     11 C5         -3.5190    3.5300    2.6520 c3        1 MOL     -0.417348
     12 C6         -4.0770    2.5730    1.6220 c         1 MOL      0.915289
     13 O3         -3.5020    2.3040    0.5300 o         1 MOL     -0.710486
     14 O4         -5.1680    2.0320    1.9270 o         1 MOL     -0.710486
     15 H4         -2.1480    4.3470    4.4460 hn        1 MOL      0.331199
     16 H5         -1.4500    2.9680    2.0170 h1        1 MOL      0.117664
     17 H6         -4.1520    4.4050    2.7750 hc        1 MOL      0.088642
     18 H7         -3.5690    2.9160    3.5510 hc        1 MOL      0.088642
     19 N2         -1.9410    4.5350    0.1240 n         1 MOL     -0.762271
     20 C7         -2.2350    5.4880   -0.9990 c3        1 MOL      0.581379
     21 C8         -3.3830    5.0120   -1.9750 c         1 MOL      0.207499
     22 O5         -3.6920    5.7140   -2.9220 o         1 MOL     -0.546021
     23 C9         -0.9280    5.8040   -1.6800 c3        1 MOL     -0.243025
     24 H8         -1.8110    3.5500   -0.0280 hn        1 MOL      0.394609
     25 H9         -2.5790    6.4370   -0.5760 h1        1 MOL     -0.045989
     26 H10        -0.5450    4.8840   -2.1270 hc        1 MOL      0.046140
     27 H11        -1.2010    6.5230   -2.4530 hc        1 MOL      0.046140
     28 H12        -0.2150    6.2650   -1.0050 hc        1 MOL      0.046140
     29 N3         -3.8450    3.7850   -1.9130 n         1 MOL     -0.067260
     30 C10        -4.7530    3.2090   -2.9260 c3        1 MOL      0.035693
     31 C11        -6.0170    2.5360   -2.3870 c         1 MOL      0.303388
     32 O6         -6.8990    2.2150   -3.1830 o         1 MOL     -0.525449
     33 C12        -3.9950    2.1450   -3.7000 c3        1 MOL     -0.040158
     34 C13        -3.2520    1.2020   -2.8430 c         1 MOL      0.536017
     35 O7         -3.8160    0.5720   -1.8830 o         1 MOL     -0.639193
     36 O8         -2.0440    1.0790   -3.0040 o         1 MOL     -0.639193
     37 H13        -3.6950    3.2460   -1.0720 hn        1 MOL      0.109058
     38 H14        -5.0220    3.8960   -3.7330 h1        1 MOL      0.094012
     39 H15        -3.3600    2.6810   -4.4080 hc        1 MOL      0.025891
     40 H16        -4.6910    1.6870   -4.4010 hc        1 MOL      0.025891
     41 N4         -6.0770    2.2800   -1.0850 n         1 MOL     -0.117461
     42 C14        -7.2400    1.5090   -0.5260 c3        1 MOL     -0.306285
     43 C15        -7.3740    0.0660   -0.9570 c         1 MOL      0.532506
     44 O9         -8.4940   -0.4920   -0.8330 o         1 MOL     -0.606222
     45 H17        -5.2010    2.3180   -0.5810 hn        1 MOL      0.042961
     46 H18        -8.1040    2.0450   -0.9300 h1        1 MOL      0.147360
     47 H19        -7.3130    1.4850    0.5630 h1        1 MOL      0.147360
     48 N5         -6.3050   -0.6030   -1.4880 n         1 MOL     -0.179775
     49 C16        -6.3250   -1.9720   -2.0020 c3        1 MOL     -0.236168
     50 C17        -6.2970   -3.1250   -0.9450 c         1 MOL      0.501156
     51 O10        -6.2700   -4.2910   -1.3240 o         1 MOL     -0.518422
     52 C18        -5.1920   -2.1390   -3.0660 c3        1 MOL     -0.020867
     53 C19        -3.7440   -2.2120   -2.5350 c         1 MOL      0.387683
     54 N6         -2.7110   -2.2270   -3.4000 n         1 MOL     -0.592349
     55 O11        -3.4650   -2.2890   -1.3220 o         1 MOL     -0.313946
     56 H20        -5.4020   -0.1640   -1.4900 hn        1 MOL      0.261245
     57 H21        -7.2630   -2.0370   -2.5550 h1        1 MOL      0.145395
     58 H22        -5.2720   -1.3530   -3.8140 hc        1 MOL      0.042308
     59 H23        -5.3820   -3.0570   -3.6310 hc        1 MOL      0.042308
     60 H24        -2.8460   -2.2900   -4.3940 hn        1 MOL      0.321099
     61 H25        -1.8700   -2.2780   -2.8470 hn        1 MOL      0.321099
     62 N7         -6.2610   -2.8530    0.3890 n         1 MOL     -0.318447
     63 C20        -6.3400   -3.8670    1.4460 c3        1 MOL     -0.169468
     64 C21        -5.0320   -4.4310    1.8690 c         1 MOL      0.504032
     65 O12        -5.0420   -5.3030    2.7730 o         1 MOL     -0.623821
     66 H26        -6.3120   -1.8830    0.6780 hn        1 MOL      0.244973
     67 H27        -6.8900   -4.7460    1.1050 h1        1 MOL      0.113721
     68 H28        -6.8590   -3.5420    2.3500 h1        1 MOL      0.113721
     69 N8         -3.9430   -4.0170    1.2970 n         1 MOL     -0.076353
     70 C22        -2.6000   -4.5180    1.5870 c3        1 MOL     -0.295188
     71 C23        -1.5670   -3.3880    1.6020 c         1 MOL      0.601351
     72 O13        -1.8000   -2.3750    0.9610 o         1 MOL     -0.666984
     73 C24        -2.2580   -5.5610    0.5270 c3        1 MOL      0.658837
     74 C25        -2.8050   -6.9520    0.8110 c3        1 MOL     -0.327869
     75 O14        -2.4380   -5.1910   -0.8460 oh        1 MOL     -0.667087
     76 H29        -4.0860   -3.3590    0.5530 hn        1 MOL      0.075775
     77 H30        -2.5360   -4.9250    2.5930 h1        1 MOL      0.099373
     78 H31        -1.1720   -5.7050    0.5450 h1        1 MOL     -0.074851
     79 H32        -2.1020   -4.3100   -1.0760 ho        1 MOL      0.359790
     80 H33        -2.3030   -7.3330    1.6990 hc        1 MOL      0.069371
     81 H34        -3.8510   -6.7850    1.0810 hc        1 MOL      0.069371
     82 H35        -2.5960   -7.7130    0.0500 hc        1 MOL      0.069371
     83 N9         -0.4110   -3.6480    2.2290 n         1 MOL     -0.387046
     84 C26         0.7970   -2.8320    2.1290 c3        1 MOL      0.024888
     85 C27         1.6090   -3.1850    0.9220 c         1 MOL      0.543877
     86 O15         1.9390   -4.3300    0.7520 o         1 MOL     -0.594512
     87 C28         1.5800   -2.6540    3.3870 c3        1 MOL      0.067636
     88 C29         0.8810   -1.8200    4.4150 c3        1 MOL      0.023032
     89 C30         3.0910   -2.1610    3.2280 c3        1 MOL     -0.335522
     90 C31         1.3880   -2.0900    5.8560 c3        1 MOL     -0.203569
     91 H36        -0.4670   -4.5310    2.7300 hn        1 MOL      0.232457
     92 H37         0.3740   -1.8390    1.9800 h1        1 MOL     -0.006186
     93 H38         1.6460   -3.6680    3.7840 hc        1 MOL      0.015566
     94 H39        -0.2010   -1.9550    4.3830 hc        1 MOL      0.020218
     95 H40         1.2110   -0.7930    4.2600 hc        1 MOL      0.020218
     96 H41         3.6040   -1.8080    4.1260 hc        1 MOL      0.085772
     97 H42         3.6820   -2.9020    2.6910 hc        1 MOL      0.085772
     98 H43         3.1280   -1.2680    2.5960 hc        1 MOL      0.085772
     99 H44         2.4450   -1.8170    5.8890 hc        1 MOL      0.046216
    100 H45         0.7290   -1.5420    6.5330 hc        1 MOL      0.046216
    101 H46         1.4260   -3.1620    6.0300 hc        1 MOL      0.046216
    102 N10         1.8250   -2.1900    0.0720 n         1 MOL     -0.195043
    103 C32         2.6330   -2.1540   -1.1600 c3        1 MOL      0.044750
    104 C33         4.0560   -1.6120   -0.7680 c         1 MOL      0.331786
    105 O16         4.2970   -0.8970    0.2210 o         1 MOL     -0.283777
    106 C34         1.8550   -1.2230   -2.0770 c3        1 MOL     -0.169161
    107 C35         0.4760   -1.6630   -2.5020 c         1 MOL      0.636429
    108 O17        -0.4500   -1.5620   -1.6640 o         1 MOL     -0.655705
    109 O18         0.2880   -2.0170   -3.7220 o         1 MOL     -0.655705
    110 H47         1.4650   -1.2760    0.2950 hn        1 MOL      0.188005
    111 H48         2.7690   -3.1520   -1.5740 h1        1 MOL      0.059989
    112 H49         2.4590   -1.0850   -2.9770 hc        1 MOL      0.041676
    113 H50         1.7540   -0.2450   -1.5940 hc        1 MOL      0.041676
    114 N11         5.0060   -1.8850   -1.6490 n         1 MOL     -0.553487
    115 C36         6.4170   -1.5780   -1.3730 c3        1 MOL      0.248797
    116 C37         6.6860   -0.1440   -0.9410 c         1 MOL      0.387761
    117 O19         7.3890    0.0080   -0.0040 o         1 MOL     -0.490957
    118 C38         7.3020   -1.9560   -2.5930 c3        1 MOL     -0.265596
    119 C39         8.7660   -1.7890   -2.2860 ca        1 MOL      0.177446
    120 C40         9.3610   -2.2350   -1.0810 ca        1 MOL     -0.233903
    121 C41         9.6020   -1.3020   -3.2850 ca        1 MOL     -0.233903
    122 C42        10.7630   -2.1020   -0.9510 ca        1 MOL     -0.014489
    123 C43        10.9840   -1.2020   -3.0920 ca        1 MOL     -0.014489
    124 C44        11.6140   -1.6030   -1.9770 ca        1 MOL     -0.203972
    125 H51         4.8410   -2.4790   -2.4400 hn        1 MOL      0.338867
    126 H52         6.6950   -2.1990   -0.5240 h1        1 MOL      0.087813
    127 H53         6.9710   -1.4310   -3.4810 hc        1 MOL      0.084807
    128 H54         7.0980   -2.9770   -2.9150 hc        1 MOL      0.084807
    129 H55         8.7650   -2.5380   -0.2250 ha        1 MOL      0.120931
    130 H56         9.1930   -0.9750   -4.2330 ha        1 MOL      0.120931
    131 H57        11.2830   -2.4900   -0.0890 ha        1 MOL      0.078277
    132 H58        11.6010   -0.7980   -3.8840 ha        1 MOL      0.078277
    133 H59        12.6980   -1.6110   -1.9120 ha        1 MOL      0.124858
    134 N12         6.2380    0.9720   -1.5800 n         1 MOL     -0.130356
    135 C45         6.5280    2.2990   -1.1150 c3        1 MOL      0.086385
    136 C46         5.8200    2.7330    0.1860 c         1 MOL      0.248987
    137 O20         6.2410    3.7080    0.7880 o         1 MOL     -0.486082
    138 C47         6.1080    3.1680   -2.3130 c3        1 MOL     -0.132431
    139 C48         6.1030    2.3100   -3.5570 c3        1 MOL      0.004376
    140 C49         5.6070    1.0950   -2.8870 c3        1 MOL     -0.080843
    141 H60         7.6010    2.3970   -0.9610 h1        1 MOL      0.063766
    142 H61         5.0990    3.5450   -2.1230 hc        1 MOL      0.058511
    143 H62         6.8400    3.9760   -2.3710 hc        1 MOL      0.058511
    144 H63         5.4980    2.7230   -4.3570 hc        1 MOL      0.029311
    145 H64         7.0590    2.0900   -4.0410 hc        1 MOL      0.029311
    146 H65         4.5470    1.2250   -2.6890 h1        1 MOL      0.054718
    147 H66         5.5900    0.1570   -3.4550 h1        1 MOL      0.054718
    148 N13         4.7070    2.0680    0.5770 n         1 MOL     -0.013667
    149 C50         4.0310    2.3130    1.8580 c3        1 MOL     -0.237823
    150 C51         4.6940    1.5420    3.0220 c         1 MOL      0.507287
    151 O21         4.7090    1.9440    4.1730 o         1 MOL     -0.563269
    152 C52         2.6080    1.5900    1.7550 c3        1 MOL      0.013033
    153 C53         1.7990    2.0340    0.4990 c3        1 MOL     -0.133493
    154 C54         0.4710    1.3410    0.3270 c         1 MOL      0.536818
    155 O22        -0.4570    1.8980   -0.3680 o         1 MOL     -0.663311
    156 O23         0.2440    0.2480    0.9370 o         1 MOL     -0.663311
    157 H67         4.2550    1.4050   -0.0360 hn        1 MOL      0.134234
    158 H68         3.9830    3.3890    2.0020 h1        1 MOL      0.152142
    159 H69         2.0770    1.9020    2.6590 hc        1 MOL      0.054685
    160 H70         2.7070    0.5040    1.7800 hc        1 MOL      0.054685
    161 H71         2.4180    1.7560   -0.3530 hc        1 MOL      0.074031
    162 H72         1.7820    3.1220    0.5260 hc        1 MOL      0.074031
    163 N14         5.3500    0.4150    2.6940 n         1 MOL     -0.041312
    164 C55         6.2790   -0.3300    3.5370 c3        1 MOL     -0.132647
    165 H73         6.2370    0.0590    4.5550 h1        1 MOL      0.057747
    166 H74         6.0030   -1.3840    3.5400 h1        1 MOL      0.057747
    167 H75         7.2920   -0.2190    3.1480 h1        1 MOL      0.057747
    168 H76         5.1510    0.0030    1.7950 hn        1 MOL      0.004874
    169 Ca1        -2.0650   -0.1250   -0.3000 Ca        1 MOL      1.671540
    170 O24        -4.4480   -0.5830    0.9690 oh        1 MOL     -0.692135
    171 H77        -4.8720    0.2630    0.9730 ho        1 MOL      0.345035
    172 H78        -4.5830   -0.9300    1.8460 ho        1 MOL      0.345035
    173 O25        -1.9580    0.2430    2.5890 oh        1 MOL     -0.692135
    174 H79        -2.1240    0.3650    3.5220 ho        1 MOL      0.345035
    175 H80        -1.0120    0.1350    2.5280 ho        1 MOL      0.345035
@<TRIPOS>BOND
     1    1    2 1   
     2    1    4 1   
     3    1    5 1   
     4    1    6 1   
     5    2    3 2   
     6    2    7 1   
     7    7    8 1   
     8    7   15 1   
     9    8    9 1   
    10    8   11 1   
    11    8   16 1   
    12    9   10 2   
    13    9   19 1   
    14   11   12 1   
    15   11   17 1   
    16   11   18 1   
    17   12   13 1   
    18   12   14 1   
    19   19   20 1   
    20   19   24 1   
    21   20   21 1   
    22   20   23 1   
    23   20   25 1   
    24   21   22 2   
    25   21   29 1   
    26   23   26 1   
    27   23   27 1   
    28   23   28 1   
    29   29   30 1   
    30   29   37 1   
    31   30   31 1   
    32   30   33 1   
    33   30   38 1   
    34   31   32 2   
    35   31   41 1   
    36   33   34 1   
    37   33   39 1   
    38   33   40 1   
    39   34   35 1   
    40   34   36 1   
    41   41   42 1   
    42   41   45 1   
    43   42   43 1   
    44   42   46 1   
    45   42   47 1   
    46   43   44 2   
    47   43   48 1   
    48   48   49 1   
    49   48   56 1   
    50   49   50 1   
    51   49   52 1   
    52   49   57 1   
    53   50   51 2   
    54   50   62 1   
    55   52   53 1   
    56   52   58 1   
    57   52   59 1   
    58   53   54 1   
    59   53   55 2   
    60   54   60 1   
    61   54   61 1   
    62   62   63 1   
    63   62   66 1   
    64   63   64 1   
    65   63   67 1   
    66   63   68 1   
    67   64   65 2   
    68   64   69 1   
    69   69   70 1   
    70   69   76 1   
    71   70   71 1   
    72   70   73 1   
    73   70   77 1   
    74   71   72 2   
    75   71   83 1   
    76   73   74 1   
    77   73   75 1   
    78   73   78 1   
    79   74   80 1   
    80   74   81 1   
    81   74   82 1   
    82   75   79 1   
    83   83   84 1   
    84   83   91 1   
    85   84   85 1   
    86   84   87 1   
    87   84   92 1   
    88   85   86 2   
    89   85  102 1   
    90   87   88 1   
    91   87   89 1   
    92   87   93 1   
    93   88   90 1   
    94   88   94 1   
    95   88   95 1   
    96   89   96 1   
    97   89   97 1   
    98   89   98 1   
    99   90   99 1   
   100   90  100 1   
   101   90  101 1   
   102  102  103 1   
   103  102  110 1   
   104  103  104 1   
   105  103  106 1   
   106  103  111 1   
   107  104  105 2   
   108  104  114 1   
   109  106  107 1   
   110  106  112 1   
   111  106  113 1   
   112  107  108 1   
   113  107  109 1   
   114  114  115 1   
   115  114  125 1   
   116  115  116 1   
   117  115  118 1   
   118  115  126 1   
   119  116  117 2   
   120  116  134 1   
   121  118  119 1   
   122  118  127 1   
   123  118  128 1   
   124  119  120 ar  
   125  119  121 ar  
   126  120  122 ar  
   127  120  129 1   
   128  121  123 ar  
   129  121  130 1   
   130  122  124 ar  
   131  122  131 1   
   132  123  124 ar  
   133  123  132 1   
   134  124  133 1   
   135  134  135 1   
   136  134  140 1   
   137  135  136 1   
   138  135  138 1   
   139  135  141 1   
   140  136  137 2   
   141  136  148 1   
   142  138  139 1   
   143  138  142 1   
   144  138  143 1   
   145  139  140 1   
   146  139  144 1   
   147  139  145 1   
   148  140  146 1   
   149  140  147 1   
   150  148  149 1   
   151  148  157 1   
   152  149  150 1   
   153  149  152 1   
   154  149  158 1   
   155  150  151 2   
   156  150  163 1   
   157  152  153 1   
   158  152  159 1   
   159  152  160 1   
   160  153  154 1   
   161  153  161 1   
   162  153  162 1   
   163  154  155 1   
   164  154  156 1   
   165  163  164 1   
   166  163  168 1   
   167  164  165 1   
   168  164  166 1   
   169  164  167 1   
   170  170  171 1   
   171  170  172 1   
   172  173  174 1   
   173  173  175 1   
@<TRIPOS>SUBSTRUCTURE
     1 MOL         1 TEMP              0 ****  ****    0 ROOT
