@<TRIPOS>MOLECULE
MOL
  189   185     1     0     0
SMALL
resp


@<TRIPOS>ATOM
      1 C1          0.2550   -2.7880    6.1490 c3        1 MOL     -0.359097
      2 C2          0.4550   -2.6840    4.6440 c         1 MOL      0.768337
      3 O1          0.5540   -1.6120    4.0820 o         1 MOL     -0.610614
      4 H1          1.0200   -3.4380    6.5730 hc        1 MOL      0.091405
      5 H2          0.3320   -1.7980    6.5960 hc        1 MOL      0.091405
      6 H3         -0.7310   -3.2050    6.3570 hc        1 MOL      0.091405
      7 N1          0.8200   -3.7780    3.9840 n         1 MOL     -0.626667
      8 C3          1.4640   -3.7500    2.6910 c3        1 MOL      0.124408
      9 C4          1.1800   -4.8890    1.7260 c         1 MOL      0.554264
     10 O2          1.0150   -6.0420    2.1000 o         1 MOL     -0.599275
     11 C5          2.9270   -3.7790    2.9770 c3        1 MOL     -0.002754
     12 C6          3.7900   -3.4250    1.8440 c         1 MOL      0.533651
     13 O3          3.4150   -2.6210    0.9530 o         1 MOL     -0.607640
     14 O4          4.8720   -3.9340    1.8220 o         1 MOL     -0.607640
     15 H4          0.9050   -4.6590    4.4780 hn        1 MOL      0.311169
     16 H5          1.2430   -2.7890    2.2220 h1        1 MOL      0.006012
     17 H6          3.3320   -4.6950    3.3970 hc        1 MOL     -0.001536
     18 H7          3.1570   -3.0990    3.7980 hc        1 MOL     -0.001536
     19 N2          1.0770   -4.5380    0.4480 n         1 MOL     -0.201006
     20 C7          1.0840   -5.5290   -0.6790 c3        1 MOL     -0.064659
     21 C8          2.4830   -5.5090   -1.4710 c         1 MOL      0.593889
     22 O5          3.0430   -6.5770   -1.7390 o         1 MOL     -0.580463
     23 C9         -0.1040   -5.3470   -1.6610 c3        1 MOL      0.046686
     24 C10        -1.4510   -5.7400   -0.9110 c3        1 MOL      0.195050
     25 C11         0.1000   -6.0590   -3.0020 c3        1 MOL     -0.349949
     26 C12        -2.6500   -4.9210   -1.3320 c3        1 MOL     -0.183128
     27 H8          1.0940   -3.5530    0.2640 hn        1 MOL      0.093491
     28 H9          0.9740   -6.5270   -0.2380 h1        1 MOL      0.059822
     29 H10        -0.3570   -4.3150   -1.8840 hc        1 MOL      0.080353
     30 H11        -1.3020   -5.6910    0.1630 hc        1 MOL     -0.045868
     31 H12        -1.7390   -6.7810   -1.0580 hc        1 MOL     -0.045868
     32 H13         0.5190   -7.0460   -2.8230 hc        1 MOL      0.080100
     33 H14        -0.8720   -6.1340   -3.4920 hc        1 MOL      0.080100
     34 H15         0.7670   -5.4390   -3.6070 hc        1 MOL      0.080100
     35 H16        -2.5170   -3.8810   -1.0380 hc        1 MOL      0.041044
     36 H17        -2.8500   -5.0470   -2.3930 hc        1 MOL      0.041044
     37 H18        -3.4360   -5.4470   -0.7900 hc        1 MOL      0.041044
     38 N3          3.0110   -4.2810   -1.7780 n         1 MOL     -0.262300
     39 C13         4.0130   -4.0820   -2.8120 c3        1 MOL     -0.065600
     40 C14         5.3520   -3.4770   -2.3300 c         1 MOL      0.388740
     41 O6          6.2620   -3.2790   -3.1380 o         1 MOL     -0.557931
     42 C15         3.4090   -3.0570   -3.8700 c3        1 MOL     -0.226218
     43 C16         2.6980   -1.7970   -3.2730 c         1 MOL      0.685424
     44 O7          3.2480   -1.1970   -2.3080 o         1 MOL     -0.643722
     45 O8          1.5630   -1.4870   -3.7500 o         1 MOL     -0.643722
     46 H19         2.6530   -3.4710   -1.2870 hn        1 MOL      0.184189
     47 H20         4.3470   -4.9990   -3.3080 h1        1 MOL      0.121706
     48 H21         2.6410   -3.5470   -4.4800 hc        1 MOL      0.061551
     49 H22         4.1510   -2.6360   -4.5600 hc        1 MOL      0.061551
     50 N4          5.5390   -3.0650   -1.0840 n         1 MOL     -0.037247
     51 C17         6.8020   -2.4560   -0.6470 c3        1 MOL     -0.289375
     52 C18         7.2750   -1.2210   -1.4480 c         1 MOL      0.528968
     53 O9          8.4670   -0.9740   -1.3380 o         1 MOL     -0.598363
     54 H23         4.8470   -3.1710   -0.3600 hn        1 MOL      0.076166
     55 H24         7.5500   -3.2380   -0.7940 h1        1 MOL      0.108372
     56 H25         6.5560   -2.1350    0.3620 h1        1 MOL      0.108372
     57 N5          6.4070   -0.3630   -1.9890 n         1 MOL     -0.108435
     58 C19         6.6530    1.0070   -2.4640 c3        1 MOL     -0.217459
     59 C20         7.1910    2.0030   -1.4330 c         1 MOL      0.578229
     60 O10         7.7610    3.0270   -1.7940 o         1 MOL     -0.581291
     61 C21         5.4450    1.5330   -3.3300 c3        1 MOL     -0.070721
     62 C22         4.0670    1.7240   -2.5610 c         1 MOL      0.671551
     63 O11         4.0400    1.3960   -1.3380 o         1 MOL     -0.665925
     64 O12         3.0640    2.0520   -3.2330 o         1 MOL     -0.665925
     65 H26         5.4420   -0.6840   -1.9520 hn        1 MOL      0.128154
     66 H27         7.5350    0.8730   -3.0810 h1        1 MOL      0.103384
     67 H28         5.3480    0.8230   -4.1560 hc        1 MOL      0.041071
     68 H29         5.6590    2.4570   -3.8750 hc        1 MOL      0.041071
     69 N6          6.8930    1.7630   -0.1840 n         1 MOL     -0.344121
     70 C23         7.2190    2.7300    0.8360 c3        1 MOL     -0.087817
     71 C24         6.0290    3.6590    1.2810 c         1 MOL      0.437897
     72 O13         6.2310    4.6360    2.0840 o         1 MOL     -0.609784
     73 H30         6.1910    1.0550   -0.0270 hn        1 MOL      0.261368
     74 H31         8.0210    3.3720    0.4850 h1        1 MOL      0.088649
     75 H32         7.5570    2.1940    1.7140 h1        1 MOL      0.088649
     76 N7          4.7940    3.4610    0.8310 n         1 MOL     -0.304886
     77 C25         3.5790    4.3130    1.1200 c3        1 MOL      0.022576
     78 C26         2.3830    3.4390    1.3150 c         1 MOL      0.553685
     79 O14         2.3250    2.3640    0.7000 o         1 MOL     -0.601410
     80 C27         3.3460    5.3610    0.0130 c3        1 MOL     -0.235608
     81 C28         4.5800    6.1960   -0.2260 c3        1 MOL     -0.171136
     82 C29         4.3160    7.5000   -0.9920 c         1 MOL      0.704203
     83 N8          5.3690    8.1690   -1.3420 n         1 MOL     -0.789122
     84 O15         3.1970    7.8980   -1.2750 o         1 MOL     -0.584751
     85 H33         4.6540    2.7040    0.1900 hn        1 MOL      0.266959
     86 H34         3.9480    4.8560    2.0020 h1        1 MOL      0.084808
     87 H35         2.5730    6.0040    0.4520 hc        1 MOL      0.109261
     88 H36         3.1760    4.7930   -0.9010 hc        1 MOL      0.109261
     89 H37         5.2610    5.5750   -0.8100 hc        1 MOL      0.095540
     90 H38         4.9400    6.4570    0.7630 hc        1 MOL      0.095540
     91 H39         6.2670    8.0200   -0.9070 hn        1 MOL      0.339943
     92 H40         5.2380    9.0350   -1.8510 hn        1 MOL      0.339943
     93 N9          1.4500    3.7640    2.2470 n         1 MOL     -0.632706
     94 C30         0.3030    2.9230    2.4980 c3        1 MOL      0.125610
     95 C31        -0.9170    3.3280    1.6390 c         1 MOL      0.629307
     96 O16        -1.2480    4.5100    1.4190 o         1 MOL     -0.631856
     97 C32         0.0350    2.9290    4.0500 c3        1 MOL      0.171827
     98 C33        -0.1230    4.3070    4.7160 c3        1 MOL     -0.285464
     99 C34        -1.1680    2.0090    4.3690 c3        1 MOL     -0.285464
    100 H41         1.6440    4.5960    2.7770 hn        1 MOL      0.341225
    101 H42         0.6010    1.9000    2.2570 h1        1 MOL      0.180725
    102 H43         0.9500    2.4450    4.3910 hc        1 MOL     -0.009646
    103 H44        -0.5110    4.2330    5.7400 hc        1 MOL      0.060782
    104 H45         0.7850    4.8910    4.5980 hc        1 MOL      0.060782
    105 H46        -0.8900    4.8750    4.1930 hc        1 MOL      0.060782
    106 H47        -1.0270    1.1320    3.7390 hc        1 MOL      0.060782
    107 H48        -0.9370    1.7210    5.3970 hc        1 MOL      0.060782
    108 H49        -2.0980    2.5360    4.1910 hc        1 MOL      0.060782
    109 N10        -1.6140    2.3480    1.1100 n         1 MOL     -0.292227
    110 C35        -2.6870    2.3570    0.1090 c3        1 MOL      0.209639
    111 C36        -4.0490    2.1710    0.7870 c         1 MOL      0.093083
    112 O17        -4.0400    1.4780    1.8030 o         1 MOL     -0.229004
    113 C37        -2.3390    1.3860   -1.1020 c3        1 MOL     -0.081436
    114 C38        -3.4700    1.3310   -2.1180 c         1 MOL      0.511033
    115 N11        -3.8270    2.4300   -2.7140 n         1 MOL     -0.607863
    116 O18        -4.1670    0.3230   -2.3860 o         1 MOL     -0.491638
    117 H50        -1.1560    1.4420    1.1600 hn        1 MOL      0.074917
    118 H51        -2.7070    3.3640   -0.3170 h1        1 MOL      0.001594
    119 H52        -2.2280    0.3580   -0.7590 hc        1 MOL      0.075775
    120 H53        -1.4510    1.7730   -1.6030 hc        1 MOL      0.075775
    121 H54        -3.2030    3.2160   -2.7160 hn        1 MOL      0.303591
    122 H55        -4.4660    2.2880   -3.4860 hn        1 MOL      0.303591
    123 N12        -5.1820    2.5890    0.1600 n         1 MOL     -0.030542
    124 C39        -6.5070    2.5220    0.8100 c3        1 MOL     -0.019131
    125 C40        -7.0700    1.0170    0.9510 c         1 MOL      0.412626
    126 O19        -7.7990    0.6850    1.9330 o         1 MOL     -0.550982
    127 C41        -7.4320    3.3610   -0.1120 c3        1 MOL      0.008730
    128 C42        -7.4720    3.3060   -1.5710 ca        1 MOL     -0.039930
    129 C43        -7.9440    2.1640   -2.2470 ca        1 MOL     -0.105760
    130 C44        -6.8370    4.2660   -2.3580 ca        1 MOL     -0.105760
    131 C45        -7.9100    2.0350   -3.6550 ca        1 MOL     -0.333528
    132 C46        -6.7810    4.1730   -3.7680 ca        1 MOL     -0.333528
    133 C47        -7.3630    3.0800   -4.3570 ca        1 MOL      0.489841
    134 O20        -7.4630    3.0120   -5.7320 oh        1 MOL     -0.594157
    135 H56        -5.2140    3.1640   -0.6690 hn        1 MOL      0.099820
    136 H57        -6.4030    2.9820    1.7960 h1        1 MOL      0.078716
    137 H58        -7.2260    4.3970    0.1470 hc        1 MOL      0.010527
    138 H59        -8.3780    3.2030    0.4150 hc        1 MOL      0.010527
    139 H60        -8.3790    1.3470   -1.6840 ha        1 MOL      0.117471
    140 H61        -6.2780    5.0740   -1.9300 ha        1 MOL      0.117471
    141 H62        -8.1330    1.0510   -4.0530 ha        1 MOL      0.161143
    142 H63        -6.3260    4.8950   -4.4320 ha        1 MOL      0.161143
    143 H64        -7.7830    2.1260   -5.8970 ho        1 MOL      0.419217
    144 N13        -6.6120    0.1640    0.0450 n         1 MOL     -0.237876
    145 C48        -6.7610   -1.3400    0.2150 c3        1 MOL     -0.104395
    146 C49        -5.8010   -1.9230    1.3110 c         1 MOL      0.335137
    147 O21        -6.1040   -2.9730    1.9600 o         1 MOL     -0.511073
    148 C50        -6.5760   -2.1440   -1.0380 c3        1 MOL      0.036885
    149 C51        -7.6170   -1.6670   -2.0430 c3        1 MOL      0.031771
    150 C52        -7.7100   -2.5320   -3.2790 c         1 MOL      0.665634
    151 O22        -7.2060   -2.0600   -4.2960 o         1 MOL     -0.735389
    152 O23        -8.2840   -3.6940   -3.2810 o         1 MOL     -0.735389
    153 H65        -5.9110    0.5420   -0.5640 hn        1 MOL      0.241568
    154 H66        -7.7930   -1.4890    0.5150 h1        1 MOL      0.144044
    155 H67        -6.7970   -3.1670   -0.7260 hc        1 MOL      0.012598
    156 H68        -5.5860   -2.0710   -1.4750 hc        1 MOL      0.012598
    157 H69        -7.4490   -0.6540   -2.3920 hc        1 MOL     -0.056581
    158 H70        -8.5840   -1.8860   -1.5790 hc        1 MOL     -0.056581
    159 N14        -4.6960   -1.2530    1.6250 n         1 MOL     -0.062265
    160 C53        -3.7510   -1.7140    2.6560 c3        1 MOL     -0.278106
    161 C54        -4.0440   -1.0920    4.0220 c         1 MOL      0.538095
    162 O24        -3.8410   -1.7060    5.0570 o         1 MOL     -0.567475
    163 C55        -2.3410   -1.2480    2.2660 c3        1 MOL      0.103827
    164 C56        -1.8770   -1.7820    0.9470 c3        1 MOL     -0.019886
    165 C57        -0.5010   -1.1880    0.7170 c         1 MOL      0.739546
    166 O25        -0.1590   -0.0470    1.0460 o         1 MOL     -0.743660
    167 O26         0.3620   -1.8980    0.0890 o         1 MOL     -0.743660
    168 H71        -4.5090   -0.3360    1.2430 hn        1 MOL      0.066444
    169 H72        -3.7180   -2.7960    2.6210 h1        1 MOL      0.135759
    170 H73        -1.7490   -1.5820    3.1060 hc        1 MOL      0.028895
    171 H74        -2.3300   -0.1610    2.2000 hc        1 MOL      0.028895
    172 H75        -2.5870   -1.4320    0.2040 hc        1 MOL      0.015943
    173 H76        -1.7770   -2.8630    1.0030 hc        1 MOL      0.015943
    174 N15        -4.5330    0.1540    4.0480 n         1 MOL     -0.144713
    175 C58        -4.6690    1.0030    5.2470 c3        1 MOL     -0.267077
    176 H77        -4.0710    0.5850    6.0570 h1        1 MOL      0.094580
    177 H78        -4.3190    2.0100    5.0220 h1        1 MOL      0.094580
    178 H79        -5.7160    1.0400    5.5490 h1        1 MOL      0.094580
    179 H80        -4.6980    0.6630    3.1960 hn        1 MOL      0.118740
    180 Ca1         2.4840   -0.1180    0.0690 Ca        1 MOL      1.696943
    181 O27         4.9310   -0.3960    1.2090 oh        1 MOL     -0.856639
    182 H81         4.8050   -1.3460    1.2230 ho        1 MOL      0.408509
    183 H82         5.6000   -0.2210    1.8660 ho        1 MOL      0.408509
    184 O28         2.3110   -0.0380    2.7160 oh        1 MOL     -0.856639
    185 H83         3.0630   -0.3230    3.2340 ho        1 MOL      0.408509
    186 H84         1.5650   -0.5000    3.1010 ho        1 MOL      0.408509
    187 O29         1.0450    0.6850   -2.1190 oh        1 MOL     -0.856639
    188 H85         1.6720    1.4130   -2.2130 ho        1 MOL      0.408509
    189 H86         1.4300   -0.0200   -2.6340 ho        1 MOL      0.408509
@<TRIPOS>BOND
     1    1    2 1   
     2    1    4 1   
     3    1    5 1   
     4    1    6 1   
     5    2    3 2   
     6    2    7 1   
     7    7    8 1   
     8    7   15 1   
     9    8    9 1   
    10    8   11 1   
    11    8   16 1   
    12    9   10 2   
    13    9   19 1   
    14   11   12 1   
    15   11   17 1   
    16   11   18 1   
    17   12   13 1   
    18   12   14 1   
    19   19   20 1   
    20   19   27 1   
    21   20   21 1   
    22   20   23 1   
    23   20   28 1   
    24   21   22 2   
    25   21   38 1   
    26   23   24 1   
    27   23   25 1   
    28   23   29 1   
    29   24   26 1   
    30   24   30 1   
    31   24   31 1   
    32   25   32 1   
    33   25   33 1   
    34   25   34 1   
    35   26   35 1   
    36   26   36 1   
    37   26   37 1   
    38   38   39 1   
    39   38   46 1   
    40   39   40 1   
    41   39   42 1   
    42   39   47 1   
    43   40   41 2   
    44   40   50 1   
    45   42   43 1   
    46   42   48 1   
    47   42   49 1   
    48   43   44 1   
    49   43   45 1   
    50   50   51 1   
    51   50   54 1   
    52   51   52 1   
    53   51   55 1   
    54   51   56 1   
    55   52   53 2   
    56   52   57 1   
    57   57   58 1   
    58   57   65 1   
    59   58   59 1   
    60   58   61 1   
    61   58   66 1   
    62   59   60 2   
    63   59   69 1   
    64   61   62 1   
    65   61   67 1   
    66   61   68 1   
    67   62   63 1   
    68   62   64 1   
    69   69   70 1   
    70   69   73 1   
    71   70   71 1   
    72   70   74 1   
    73   70   75 1   
    74   71   72 2   
    75   71   76 1   
    76   76   77 1   
    77   76   85 1   
    78   77   78 1   
    79   77   80 1   
    80   77   86 1   
    81   78   79 2   
    82   78   93 1   
    83   80   81 1   
    84   80   87 1   
    85   80   88 1   
    86   81   82 1   
    87   81   89 1   
    88   81   90 1   
    89   82   83 1   
    90   82   84 2   
    91   83   91 1   
    92   83   92 1   
    93   93   94 1   
    94   93  100 1   
    95   94   95 1   
    96   94   97 1   
    97   94  101 1   
    98   95   96 2   
    99   95  109 1   
   100   97   98 1   
   101   97   99 1   
   102   97  102 1   
   103   98  103 1   
   104   98  104 1   
   105   98  105 1   
   106   99  106 1   
   107   99  107 1   
   108   99  108 1   
   109  109  110 1   
   110  109  117 1   
   111  110  111 1   
   112  110  113 1   
   113  110  118 1   
   114  111  112 2   
   115  111  123 1   
   116  113  114 1   
   117  113  119 1   
   118  113  120 1   
   119  114  115 1   
   120  114  116 2   
   121  115  121 1   
   122  115  122 1   
   123  123  124 1   
   124  123  135 1   
   125  124  125 1   
   126  124  127 1   
   127  124  136 1   
   128  125  126 2   
   129  125  144 1   
   130  127  128 1   
   131  127  137 1   
   132  127  138 1   
   133  128  129 ar  
   134  128  130 ar  
   135  129  131 ar  
   136  129  139 1   
   137  130  132 ar  
   138  130  140 1   
   139  131  133 ar  
   140  131  141 1   
   141  132  133 ar  
   142  132  142 1   
   143  133  134 1   
   144  134  143 1   
   145  144  145 1   
   146  144  153 1   
   147  145  146 1   
   148  145  148 1   
   149  145  154 1   
   150  146  147 2   
   151  146  159 1   
   152  148  149 1   
   153  148  155 1   
   154  148  156 1   
   155  149  150 1   
   156  149  157 1   
   157  149  158 1   
   158  150  151 1   
   159  150  152 1   
   160  159  160 1   
   161  159  168 1   
   162  160  161 1   
   163  160  163 1   
   164  160  169 1   
   165  161  162 2   
   166  161  174 1   
   167  163  164 1   
   168  163  170 1   
   169  163  171 1   
   170  164  165 1   
   171  164  172 1   
   172  164  173 1   
   173  165  166 1   
   174  165  167 1   
   175  174  175 1   
   176  174  179 1   
   177  175  176 1   
   178  175  177 1   
   179  175  178 1   
   180  181  182 1   
   181  181  183 1   
   182  184  185 1   
   183  184  186 1   
   184  187  188 1   
   185  187  189 1   
@<TRIPOS>SUBSTRUCTURE
     1 MOL         1 TEMP              0 ****  ****    0 ROOT
