@<TRIPOS>MOLECULE
MOL
  172   171     1     0     0
SMALL
resp


@<TRIPOS>ATOM
      1 C1         -0.8920    4.2100    5.9440 c3        1 MOL     -0.438287
      2 C2         -0.8910    3.4840    4.5880 c         1 MOL      0.680384
      3 O1          0.1810    3.2470    3.9070 o         1 MOL     -0.593896
      4 H1         -1.9110    4.4970    6.2010 hc        1 MOL      0.119343
      5 H2         -0.4970    3.5460    6.7130 hc        1 MOL      0.119343
      6 H3         -0.2690    5.1020    5.8790 hc        1 MOL      0.119343
      7 N1         -2.0730    3.0100    4.0280 n         1 MOL     -0.541594
      8 C3         -2.3190    2.5310    2.6300 c3        1 MOL      0.023222
      9 C4         -2.6740    3.7560    1.7800 c         1 MOL      0.597812
     10 O2         -3.6420    4.4160    2.0630 o         1 MOL     -0.573981
     11 C5         -3.4440    1.5230    2.6440 c3        1 MOL     -0.314743
     12 C6         -3.7930    0.8990    1.3780 c         1 MOL      1.053526
     13 O3         -4.6040   -0.0600    1.4770 o         1 MOL     -0.846427
     14 O4         -3.2230    1.2260    0.3450 o         1 MOL     -0.846427
     15 H4         -2.9110    3.2370    4.5360 hn        1 MOL      0.301463
     16 H5         -1.4220    2.1810    2.1290 h1        1 MOL      0.001968
     17 H6         -4.3580    2.0820    2.8280 hc        1 MOL      0.074295
     18 H7         -3.2030    0.7590    3.3770 hc        1 MOL      0.074295
     19 N2         -1.9290    3.9970    0.6650 n         1 MOL     -0.329883
     20 C7         -2.0320    5.1550   -0.1370 c3        1 MOL      0.023653
     21 C8         -2.9720    4.9020   -1.3900 c         1 MOL      0.460364
     22 O5         -3.2420    5.8620   -2.0980 o         1 MOL     -0.569553
     23 C9         -0.6920    5.6810   -0.3790 c3        1 MOL     -0.064279
     24 H8         -1.3330    3.2500    0.3380 hn        1 MOL      0.330792
     25 H9         -2.5270    5.8980    0.5050 h1        1 MOL      0.062277
     26 H10        -0.4780    6.6570   -0.8170 hc        1 MOL      0.022675
     27 H11        -0.1050    5.5960    0.5380 hc        1 MOL      0.022675
     28 H12        -0.1360    4.9900   -1.0220 hc        1 MOL      0.022675
     29 N3         -3.4630    3.6640   -1.5460 n         1 MOL     -0.086672
     30 C10        -4.4520    3.3690   -2.6010 c3        1 MOL     -0.069005
     31 C11        -5.7220    2.5720   -2.1910 c         1 MOL      0.562523
     32 O6         -6.6760    2.4430   -2.9900 o         1 MOL     -0.553677
     33 C12        -3.6550    2.6500   -3.7100 c3        1 MOL     -0.172910
     34 C13        -3.0460    1.3010   -3.1760 c         1 MOL      0.739510
     35 O7         -3.6980    0.6700   -2.3630 o         1 MOL     -0.728733
     36 O8         -1.8780    0.9950   -3.4290 o         1 MOL     -0.728733
     37 H13        -3.2910    2.9730   -0.8240 hn        1 MOL     -0.078912
     38 H14        -4.9560    4.2050   -3.0820 h1        1 MOL      0.099281
     39 H15        -2.8260    3.2370   -4.1030 hc        1 MOL      0.046857
     40 H16        -4.3050    2.4830   -4.5660 hc        1 MOL      0.046857
     41 N4         -5.7780    2.2280   -0.9020 n         1 MOL     -0.483268
     42 C14        -7.1010    1.9770   -0.2380 c3        1 MOL     -0.141058
     43 C15        -7.5350    0.4760   -0.4060 c         1 MOL      0.443290
     44 O9         -8.7010    0.1630   -0.1230 o         1 MOL     -0.587852
     45 H17        -4.8990    1.9680   -0.4660 hn        1 MOL      0.422162
     46 H18        -7.9060    2.5930   -0.6350 h1        1 MOL      0.115178
     47 H19        -7.0900    2.1170    0.8450 h1        1 MOL      0.115178
     48 N5         -6.6620   -0.3780   -0.9140 n         1 MOL     -0.014070
     49 C16        -6.9390   -1.8230   -1.1210 c3        1 MOL     -0.217486
     50 C17        -6.7310   -2.8120    0.0730 c         1 MOL      0.562267
     51 O10        -6.9490   -4.0000   -0.1140 o         1 MOL     -0.537512
     52 C18        -6.1240   -2.2310   -2.3750 c3        1 MOL     -0.139261
     53 C19        -6.6250   -1.5730   -3.6790 c         1 MOL      0.628887
     54 N6         -5.9310   -0.5790   -4.0720 n         1 MOL     -0.689089
     55 O11        -7.4980   -2.0600   -4.4170 o         1 MOL     -0.615693
     56 H20        -5.7450   -0.0590   -1.1860 hn        1 MOL      0.081684
     57 H21        -8.0010   -1.9290   -1.3430 h1        1 MOL      0.124070
     58 H22        -6.1120   -3.3050   -2.5210 hc        1 MOL      0.057711
     59 H23        -5.1190   -2.0160   -2.0200 hc        1 MOL      0.057711
     60 H24        -5.2260   -0.1540   -3.4800 hn        1 MOL      0.339676
     61 H25        -6.2720   -0.1290   -4.9080 hn        1 MOL      0.339676
     62 N7         -6.4290   -2.1840    1.2060 n         1 MOL     -0.332826
     63 C20        -6.2610   -2.8750    2.4890 c3        1 MOL     -0.188305
     64 C21        -4.9960   -3.7260    2.5470 c         1 MOL      0.544461
     65 O12        -4.9130   -4.6260    3.3240 o         1 MOL     -0.563153
     66 H26        -6.2330   -1.2020    1.1940 hn        1 MOL      0.317165
     67 H27        -7.1210   -3.5300    2.5780 h1        1 MOL      0.102860
     68 H28        -6.2090   -2.1530    3.3110 h1        1 MOL      0.102860
     69 N8         -3.9880   -3.3530    1.7400 n         1 MOL     -0.130203
     70 C22        -2.6640   -4.0120    1.7800 c3        1 MOL     -0.297646
     71 C23        -1.5290   -2.9270    1.6730 c         1 MOL      0.594216
     72 O13        -1.7750   -1.8900    1.0200 o         1 MOL     -0.611573
     73 C24        -2.6030   -5.1390    0.7340 c3        1 MOL      0.473971
     74 C25        -3.4720   -6.3720    0.9970 c3        1 MOL     -0.407026
     75 O14        -2.7300   -4.7210   -0.5500 oh        1 MOL     -0.664041
     76 H29        -4.0730   -2.4920    1.2230 hn        1 MOL      0.222267
     77 H30        -2.3990   -4.4350    2.7550 h1        1 MOL      0.109597
     78 H31        -1.5340   -5.3790    0.7440 h1        1 MOL     -0.056708
     79 H32        -2.2810   -5.3410   -1.1330 ho        1 MOL      0.420452
     80 H33        -4.4650   -6.0550    1.3300 hc        1 MOL      0.104227
     81 H34        -3.5280   -7.0510    0.1460 hc        1 MOL      0.104227
     82 H35        -3.0110   -6.8920    1.8400 hc        1 MOL      0.104227
     83 N9         -0.4180   -3.1330    2.3710 n         1 MOL     -0.302181
     84 C26         0.8010   -2.3390    2.2130 c3        1 MOL     -0.064054
     85 C27         1.7690   -2.8380    1.1800 c         1 MOL      0.543087
     86 O15         2.2280   -3.9760    1.2280 o         1 MOL     -0.599663
     87 C28         1.4680   -2.1470    3.5540 c3        1 MOL      0.042464
     88 C29         0.5140   -1.4050    4.4960 c3        1 MOL      0.012096
     89 C30         2.8260   -1.4430    3.4670 c3        1 MOL     -0.222942
     90 C31         0.2600    0.0670    4.1450 c3        1 MOL     -0.004504
     91 H36        -0.3410   -3.9750    2.9340 hn        1 MOL      0.256259
     92 H37         0.5050   -1.3440    1.8630 h1        1 MOL      0.103280
     93 H38         1.6210   -3.0810    4.0820 hc        1 MOL      0.022145
     94 H39         0.9890   -1.4340    5.4780 hc        1 MOL     -0.028903
     95 H40        -0.3520   -2.0460    4.6560 hc        1 MOL     -0.028903
     96 H41         3.2190   -1.1310    4.4300 hc        1 MOL      0.051365
     97 H42         3.4850   -2.0850    2.8820 hc        1 MOL      0.051365
     98 H43         2.7180   -0.5470    2.8510 hc        1 MOL      0.051365
     99 H44         1.2290    0.5470    4.0090 hc        1 MOL      0.031148
    100 H45        -0.4150    0.0380    3.2820 hc        1 MOL      0.031148
    101 H46        -0.2640    0.5650    4.9630 hc        1 MOL      0.031148
    102 N10         2.0790   -2.0340    0.1490 n         1 MOL     -0.063210
    103 C32         3.1010   -2.2520   -0.9080 c3        1 MOL     -0.040324
    104 C33         4.4420   -1.7330   -0.4820 c         1 MOL      0.468029
    105 O16         4.5300   -0.9250    0.4510 o         1 MOL     -0.351263
    106 C34         2.7360   -1.5840   -2.2500 c3        1 MOL     -0.281849
    107 C35         1.2960   -1.9980   -2.5700 c         1 MOL      0.715436
    108 O17         1.0760   -3.1460   -3.0540 o         1 MOL     -0.697985
    109 O18         0.3270   -1.2270   -2.3700 o         1 MOL     -0.697985
    110 H47         1.6650   -1.1070    0.2210 hn        1 MOL     -0.123871
    111 H48         3.1690   -3.3270   -1.0820 h1        1 MOL      0.094167
    112 H49         3.3700   -1.9200   -3.0640 hc        1 MOL      0.091491
    113 H50         2.8170   -0.5080   -2.0970 hc        1 MOL      0.091491
    114 N11         5.4920   -2.0360   -1.2950 n         1 MOL     -0.662276
    115 C36         6.9060   -1.5970   -0.9970 c3        1 MOL      0.414607
    116 C37         7.2280   -0.0290   -0.9250 c         1 MOL      0.324402
    117 O19         7.9830    0.3440   -0.0350 o         1 MOL     -0.472346
    118 C38         7.8510   -2.2810   -1.9440 c3        1 MOL     -0.197861
    119 C39         9.3210   -2.0600   -1.5910 ca        1 MOL      0.159272
    120 C40         9.6870   -2.5330   -0.3230 ca        1 MOL     -0.268849
    121 C41        10.2380   -1.4080   -2.4700 ca        1 MOL     -0.268849
    122 C42        11.0240   -2.3080    0.1660 ca        1 MOL     -0.006402
    123 C43        11.5720   -1.3300   -1.9690 ca        1 MOL     -0.006402
    124 C44        12.0000   -1.7370   -0.6980 ca        1 MOL     -0.230995
    125 H51         5.3780   -2.5750   -2.1370 hn        1 MOL      0.334937
    126 H52         7.1430   -2.0010   -0.0110 h1        1 MOL      0.028978
    127 H53         7.7070   -1.9390   -2.9610 hc        1 MOL      0.051278
    128 H54         7.6180   -3.3450   -1.9240 hc        1 MOL      0.051278
    129 H55         9.0250   -3.1180    0.2960 ha        1 MOL      0.149211
    130 H56         9.9470   -1.0770   -3.4570 ha        1 MOL      0.149211
    131 H57        11.2640   -2.5960    1.1800 ha        1 MOL      0.086345
    132 H58        12.2880   -0.8400   -2.6120 ha        1 MOL      0.086345
    133 H59        13.0070   -1.5200   -0.3890 ha        1 MOL      0.133795
    134 N12         6.5840    0.8460   -1.7600 n         1 MOL     -0.095542
    135 C45         6.6840    2.3940   -1.6560 c3        1 MOL     -0.071479
    136 C46         5.7720    2.9350   -0.4990 c         1 MOL      0.451995
    137 O20         6.1900    3.9460    0.0450 o         1 MOL     -0.498202
    138 C47         6.2840    2.8730   -3.0960 c3        1 MOL     -0.140377
    139 C48         5.4390    1.7460   -3.6640 c3        1 MOL      0.046461
    140 C49         5.9060    0.4740   -2.9940 c3        1 MOL      0.064869
    141 H60         7.7430    2.4610   -1.4200 h1        1 MOL      0.100234
    142 H61         5.5720    3.6830   -2.9150 hc        1 MOL      0.057765
    143 H62         7.0790    3.1460   -3.7990 hc        1 MOL      0.057765
    144 H63         4.4290    1.9580   -3.3170 hc        1 MOL      0.019631
    145 H64         5.3970    1.7510   -4.7550 hc        1 MOL      0.019631
    146 H65         4.9940   -0.1060   -2.8590 h1        1 MOL     -0.016107
    147 H66         6.5110   -0.0670   -3.7290 h1        1 MOL     -0.016107
    148 N13         4.7190    2.2180   -0.0290 n         1 MOL     -0.306024
    149 C50         4.0930    2.4690    1.2400 c3        1 MOL     -0.084715
    150 C51         4.9460    2.0060    2.4500 c         1 MOL      0.495886
    151 O21         5.0980    2.8020    3.3810 o         1 MOL     -0.572618
    152 C52         2.7370    1.7690    1.2350 c3        1 MOL      0.145251
    153 C53         1.6740    2.4180    0.2850 c3        1 MOL     -0.064182
    154 C54         0.5210    1.4840   -0.1360 c         1 MOL      0.715171
    155 O22         0.4330    0.3240    0.3680 o         1 MOL     -0.698195
    156 O23        -0.3510    1.8840   -0.9720 o         1 MOL     -0.698195
    157 H67         4.3650    1.4470   -0.5780 hn        1 MOL      0.261800
    158 H68         3.9330    3.5210    1.4730 h1        1 MOL      0.081469
    159 H69         2.3200    1.7250    2.2420 hc        1 MOL      0.037771
    160 H70         2.8670    0.7650    0.8300 hc        1 MOL      0.037771
    161 H71         2.1280    2.6540   -0.6700 hc        1 MOL     -0.013835
    162 H72         1.2270    3.2650    0.8140 hc        1 MOL     -0.013835
    163 N14         5.5510    0.8510    2.3200 n         1 MOL     -0.117567
    164 C55         6.5250    0.3340    3.2470 c3        1 MOL     -0.135302
    165 H73         7.2050   -0.3370    2.7220 h1        1 MOL      0.058562
    166 H74         7.0910    1.1600    3.6780 h1        1 MOL      0.058562
    167 H75         6.0170   -0.2130    4.0410 h1        1 MOL      0.058562
    168 H76         5.2570    0.1940    1.6080 hn        1 MOL      0.088544
    169 Ca1        -1.6680   -0.2560   -1.1270 Ca        1 MOL      1.787527
    170 O24        -2.4040   -2.4630   -2.3650 oh        1 MOL     -0.867657
    171 H77        -2.8020   -2.9310   -3.0950 ho        1 MOL      0.425257
    172 H78        -2.1610   -3.1470   -1.7410 ho        1 MOL      0.425257
@<TRIPOS>BOND
     1    1    2 1   
     2    1    4 1   
     3    1    5 1   
     4    1    6 1   
     5    2    3 2   
     6    2    7 1   
     7    7    8 1   
     8    7   15 1   
     9    8    9 1   
    10    8   11 1   
    11    8   16 1   
    12    9   10 2   
    13    9   19 1   
    14   11   12 1   
    15   11   17 1   
    16   11   18 1   
    17   12   13 1   
    18   12   14 1   
    19   19   20 1   
    20   19   24 1   
    21   20   21 1   
    22   20   23 1   
    23   20   25 1   
    24   21   22 2   
    25   21   29 1   
    26   23   26 1   
    27   23   27 1   
    28   23   28 1   
    29   29   30 1   
    30   29   37 1   
    31   30   31 1   
    32   30   33 1   
    33   30   38 1   
    34   31   32 2   
    35   31   41 1   
    36   33   34 1   
    37   33   39 1   
    38   33   40 1   
    39   34   35 1   
    40   34   36 1   
    41   41   42 1   
    42   41   45 1   
    43   42   43 1   
    44   42   46 1   
    45   42   47 1   
    46   43   44 2   
    47   43   48 1   
    48   48   49 1   
    49   48   56 1   
    50   49   50 1   
    51   49   52 1   
    52   49   57 1   
    53   50   51 2   
    54   50   62 1   
    55   52   53 1   
    56   52   58 1   
    57   52   59 1   
    58   53   54 1   
    59   53   55 2   
    60   54   60 1   
    61   54   61 1   
    62   62   63 1   
    63   62   66 1   
    64   63   64 1   
    65   63   67 1   
    66   63   68 1   
    67   64   65 2   
    68   64   69 1   
    69   69   70 1   
    70   69   76 1   
    71   70   71 1   
    72   70   73 1   
    73   70   77 1   
    74   71   72 2   
    75   71   83 1   
    76   73   74 1   
    77   73   75 1   
    78   73   78 1   
    79   74   80 1   
    80   74   81 1   
    81   74   82 1   
    82   75   79 1   
    83   83   84 1   
    84   83   91 1   
    85   84   85 1   
    86   84   87 1   
    87   84   92 1   
    88   85   86 2   
    89   85  102 1   
    90   87   88 1   
    91   87   89 1   
    92   87   93 1   
    93   88   90 1   
    94   88   94 1   
    95   88   95 1   
    96   89   96 1   
    97   89   97 1   
    98   89   98 1   
    99   90   99 1   
   100   90  100 1   
   101   90  101 1   
   102  102  103 1   
   103  102  110 1   
   104  103  104 1   
   105  103  106 1   
   106  103  111 1   
   107  104  105 2   
   108  104  114 1   
   109  106  107 1   
   110  106  112 1   
   111  106  113 1   
   112  107  108 1   
   113  107  109 1   
   114  114  115 1   
   115  114  125 1   
   116  115  116 1   
   117  115  118 1   
   118  115  126 1   
   119  116  117 2   
   120  116  134 1   
   121  118  119 1   
   122  118  127 1   
   123  118  128 1   
   124  119  120 ar  
   125  119  121 ar  
   126  120  122 ar  
   127  120  129 1   
   128  121  123 ar  
   129  121  130 1   
   130  122  124 ar  
   131  122  131 1   
   132  123  124 ar  
   133  123  132 1   
   134  124  133 1   
   135  134  135 1   
   136  134  140 1   
   137  135  136 1   
   138  135  138 1   
   139  135  141 1   
   140  136  137 2   
   141  136  148 1   
   142  138  139 1   
   143  138  142 1   
   144  138  143 1   
   145  139  140 1   
   146  139  144 1   
   147  139  145 1   
   148  140  146 1   
   149  140  147 1   
   150  148  149 1   
   151  148  157 1   
   152  149  150 1   
   153  149  152 1   
   154  149  158 1   
   155  150  151 2   
   156  150  163 1   
   157  152  153 1   
   158  152  159 1   
   159  152  160 1   
   160  153  154 1   
   161  153  161 1   
   162  153  162 1   
   163  154  155 1   
   164  154  156 1   
   165  163  164 1   
   166  163  168 1   
   167  164  165 1   
   168  164  166 1   
   169  164  167 1   
   170  170  171 1   
   171  170  172 1   
@<TRIPOS>SUBSTRUCTURE
     1 MOL         1 TEMP              0 ****  ****    0 ROOT
