@<TRIPOS>MOLECULE
MOL
  179   176     1     0     0
SMALL
resp


@<TRIPOS>ATOM
      1 C1          1.3530    4.3430    5.3740 c3        1 MOL     -0.269067
      2 C2          0.9910    3.8530    3.9810 c         1 MOL      0.548180
      3 O1          1.8780    3.7850    3.0950 o         1 MOL     -0.555388
      4 H1          1.7390    3.5110    5.9630 hc        1 MOL      0.073537
      5 H2          2.1140    5.1190    5.3010 hc        1 MOL      0.073537
      6 H3          0.4650    4.7490    5.8590 hc        1 MOL      0.073537
      7 N1         -0.2490    3.5570    3.7790 n         1 MOL     -0.396959
      8 C3         -0.7810    3.2150    2.4110 c3        1 MOL     -0.129523
      9 C4         -1.3490    4.5240    1.6690 c         1 MOL      0.491537
     10 O2         -2.5080    4.9730    1.8740 o         1 MOL     -0.502312
     11 C5         -1.9560    2.1380    2.5530 c3        1 MOL     -0.169411
     12 C6         -2.2860    1.3920    1.2580 c         1 MOL      1.120440
     13 O3         -1.8170    1.7400    0.1200 o         1 MOL     -0.939571
     14 O4         -3.0830    0.4970    1.2210 o         1 MOL     -0.939571
     15 H4         -0.9660    3.5870    4.4950 hn        1 MOL      0.317425
     16 H5         -0.0280    2.6840    1.8190 h1        1 MOL      0.069230
     17 H6         -2.8560    2.5680    3.0030 hc        1 MOL      0.058022
     18 H7         -1.6220    1.4410    3.3290 hc        1 MOL      0.058022
     19 N2         -0.5040    5.0570    0.7880 n         1 MOL     -0.434632
     20 C7         -0.7820    6.2710    0.0690 c3        1 MOL      0.051981
     21 C8         -1.7590    6.1350   -1.1320 c         1 MOL      0.385541
     22 O5         -2.4030    7.1470   -1.5160 o         1 MOL     -0.514463
     23 C9          0.5400    6.7140   -0.3820 c3        1 MOL     -0.195068
     24 C10         1.4270    7.1280    0.8560 c3        1 MOL      0.006932
     25 C11         2.7540    7.7620    0.3630 c3        1 MOL     -0.129326
     26 C12         3.7100    7.9380    1.4770 c3        1 MOL      0.227230
     27 N3          5.0670    8.3420    0.9490 n4        1 MOL     -0.451793
     28 H8          0.4150    4.6650    0.7040 hn        1 MOL      0.346645
     29 H9         -1.2190    7.0180    0.7280 h1        1 MOL      0.116060
     30 H10         0.3920    7.6190   -0.9770 hc        1 MOL      0.078039
     31 H11         1.0660    5.9730   -0.9840 hc        1 MOL      0.078039
     32 H12         1.8010    6.2000    1.3020 hc        1 MOL      0.049935
     33 H13         0.9570    7.7890    1.5840 hc        1 MOL      0.049935
     34 H14         2.6060    8.7310   -0.1290 hc        1 MOL      0.047594
     35 H15         3.2870    7.0890   -0.3110 hc        1 MOL      0.047594
     36 H16         3.6580    6.9500    1.9220 hx        1 MOL      0.027706
     37 H17         3.3850    8.5920    2.2860 hx        1 MOL      0.027706
     38 H18         4.8850    9.3360    0.8430 hn        1 MOL      0.349752
     39 H19         5.7580    8.1870    1.6570 hn        1 MOL      0.349752
     40 H20         5.2740    7.8770    0.0780 hn        1 MOL      0.349752
     41 N4         -1.9920    4.8990   -1.6680 n         1 MOL     -0.239502
     42 C13        -3.0650    4.6840   -2.6900 c3        1 MOL      0.075594
     43 C14        -4.3800    4.1950   -2.0040 c         1 MOL      0.412243
     44 O6         -5.4300    4.4820   -2.4340 o         1 MOL     -0.544999
     45 C15        -2.6240    3.7120   -3.8460 c3        1 MOL     -0.229712
     46 C16        -2.3030    2.3410   -3.3210 c         1 MOL      0.835382
     47 O7         -1.1050    1.9640   -3.3870 o         1 MOL     -0.730104
     48 O8         -3.2140    1.6230   -2.7500 o         1 MOL     -0.730104
     49 H21        -1.4120    4.1020   -1.4710 hn        1 MOL      0.212963
     50 H22        -3.2840    5.5630   -3.2900 h1        1 MOL      0.099311
     51 H23        -1.6710    4.1150   -4.1700 hc        1 MOL      0.046106
     52 H24        -3.2770    3.6190   -4.7040 hc        1 MOL      0.046106
     53 N5         -4.3190    3.6500   -0.8060 n         1 MOL      0.027952
     54 C17        -5.4870    3.4320    0.0530 c3        1 MOL     -0.234616
     55 C18        -6.3320    2.2000   -0.2840 c         1 MOL      0.481516
     56 O9         -7.4430    2.0260    0.2460 o         1 MOL     -0.560429
     57 H25        -3.4080    3.4620   -0.4350 hn        1 MOL      0.024553
     58 H26        -6.1240    4.3220    0.0860 h1        1 MOL      0.117544
     59 H27        -5.1260    3.2420    1.0640 h1        1 MOL      0.117544
     60 N6         -5.8360    1.3050   -1.1530 n         1 MOL     -0.176144
     61 C19        -6.5040   -0.0140   -1.4000 c3        1 MOL     -0.001578
     62 C20        -6.5700   -0.9440   -0.1290 c         1 MOL      0.280388
     63 O10        -7.2810   -1.9700   -0.2560 o         1 MOL     -0.432598
     64 C21        -5.7620   -0.6640   -2.6010 c3        1 MOL     -0.283100
     65 C22        -4.5970   -1.5160   -2.1600 c         1 MOL      0.599911
     66 N7         -4.5900   -2.7520   -2.5930 n         1 MOL     -0.576693
     67 O11        -3.7780   -1.1920   -1.3120 o         1 MOL     -0.631040
     68 H28        -5.0620    1.5290   -1.7630 hn        1 MOL      0.164212
     69 H29        -7.5610    0.1260   -1.6150 h1        1 MOL      0.103753
     70 H30        -5.3630    0.0690   -3.3070 hc        1 MOL      0.108554
     71 H31        -6.4470   -1.3910   -3.0400 hc        1 MOL      0.108554
     72 H32        -5.2200   -2.9440   -3.3590 hn        1 MOL      0.307905
     73 H33        -3.8250   -3.3690   -2.3270 hn        1 MOL      0.307905
     74 N8         -5.8130   -0.6130    0.9200 n         1 MOL     -0.092980
     75 C23        -5.8890   -1.1610    2.2600 c3        1 MOL     -0.134153
     76 C24        -4.9320   -2.3860    2.3860 c         1 MOL      0.428612
     77 O12        -5.2630   -3.2750    3.1730 o         1 MOL     -0.529649
     78 H34        -5.1270    0.1120    0.7420 hn        1 MOL      0.281821
     79 H35        -6.8740   -1.4180    2.6300 h1        1 MOL      0.091893
     80 H36        -5.5410   -0.3670    2.9280 h1        1 MOL      0.091893
     81 N9         -3.8870   -2.4610    1.5340 n         1 MOL     -0.025006
     82 C25        -2.7590   -3.4640    1.5800 c3        1 MOL      0.138750
     83 C26        -1.4820   -2.7380    1.2150 c         1 MOL      0.311635
     84 O13        -1.5190   -1.8690    0.3290 o         1 MOL     -0.529956
     85 C27        -2.9710   -4.5410    0.5180 c3        1 MOL      0.064446
     86 C28        -4.2750   -5.3430    0.5880 ca        1 MOL     -0.162446
     87 C29        -5.5270   -4.8530    0.1040 ca        1 MOL     -0.068325
     88 C30        -4.2770   -6.5770    1.2960 ca        1 MOL     -0.068325
     89 C31        -6.6770   -5.6180    0.2660 ca        1 MOL     -0.283705
     90 C32        -5.4680   -7.2680    1.4710 ca        1 MOL     -0.283705
     91 C33        -6.6880   -6.7950    0.9410 ca        1 MOL      0.408734
     92 O14        -7.8530   -7.4900    1.0010 oh        1 MOL     -0.474057
     93 H37        -3.7260   -1.6320    0.9800 hn        1 MOL      0.074195
     94 H38        -2.7210   -3.8040    2.6140 h1        1 MOL      0.002921
     95 H39        -2.1480   -5.2400    0.3830 hc        1 MOL      0.023752
     96 H40        -2.9600   -3.9810   -0.4120 hc        1 MOL      0.023752
     97 H41        -5.5370   -3.8240   -0.2160 ha        1 MOL      0.091638
     98 H42        -3.3210   -6.9280    1.6610 ha        1 MOL      0.091638
     99 H43        -7.5630   -5.1500   -0.1240 ha        1 MOL      0.132206
    100 H44        -5.4070   -8.2030    2.0020 ha        1 MOL      0.132206
    101 H45        -7.7130   -8.2060    1.6280 ho        1 MOL      0.335046
    102 N10        -0.3140   -3.1130    1.6860 n         1 MOL     -0.284299
    103 C34         1.0350   -2.5790    1.1950 c3        1 MOL     -0.172407
    104 C35         2.1190   -3.6720    1.0350 c         1 MOL      0.493562
    105 O15         2.2750   -4.6200    1.8150 o         1 MOL     -0.518165
    106 C36         1.5850   -1.5390    2.1400 c3        1 MOL      0.269421
    107 C37         1.5650   -1.9750    3.6670 c3        1 MOL     -0.030155
    108 C38         0.7800   -0.2890    2.1220 c3        1 MOL     -0.718631
    109 C39         2.6440   -1.2220    4.4980 c3        1 MOL     -0.187667
    110 H46        -0.2220   -3.8520    2.3760 hn        1 MOL      0.256101
    111 H47         0.9190   -2.0680    0.2440 h1        1 MOL      0.163389
    112 H48         2.6290   -1.3210    1.9030 hc        1 MOL      0.020452
    113 H49         1.8630   -3.0220    3.6480 hc        1 MOL      0.021915
    114 H50         0.5640   -1.9360    4.1010 hc        1 MOL      0.021915
    115 H51         0.7420    0.1200    1.1170 hc        1 MOL      0.200412
    116 H52        -0.2300   -0.4570    2.4810 hc        1 MOL      0.200412
    117 H53         1.3030    0.4850    2.6630 hc        1 MOL      0.200412
    118 H54         3.5640   -1.0570    3.9420 hc        1 MOL      0.050420
    119 H55         2.3640   -0.1990    4.7580 hc        1 MOL      0.050420
    120 H56         2.8700   -1.7560    5.4230 hc        1 MOL      0.050420
    121 N11         2.8450   -3.6060   -0.1040 n         1 MOL     -0.277826
    122 C40         3.9980   -4.3670   -0.5050 c3        1 MOL     -0.135277
    123 C41         5.2920   -3.7470    0.0890 c         1 MOL      0.653923
    124 O16         5.2640   -2.6050    0.4830 o         1 MOL     -0.488844
    125 C42         4.0070   -4.3120   -2.0640 c3        1 MOL      0.190861
    126 O17         4.3570   -3.0510   -2.6190 oh        1 MOL     -0.607504
    127 H57         2.5340   -2.8770   -0.7220 hn        1 MOL      0.155604
    128 H58         3.8980   -5.4020   -0.1810 h1        1 MOL      0.079980
    129 H59         3.1050   -4.7750   -2.4720 h1        1 MOL      0.021278
    130 H60         4.7880   -5.0310   -2.3120 h1        1 MOL      0.021278
    131 H61         3.5370   -2.5700   -2.5010 ho        1 MOL      0.435882
    132 N12         6.4050   -4.5420    0.0010 n         1 MOL     -0.561142
    133 C43         7.8010   -4.1000    0.3310 c3        1 MOL      0.140969
    134 C44         8.3110   -2.8580   -0.3920 c         1 MOL      0.591504
    135 O18         8.8730   -2.0130    0.3120 o         1 MOL     -0.564529
    136 C45         8.7890   -5.2340    0.1360 c3        1 MOL     -0.244424
    137 H62         6.3000   -5.4240   -0.4920 hn        1 MOL      0.304724
    138 H63         7.7940   -3.8210    1.3830 h1        1 MOL      0.078478
    139 H64         8.2470   -6.1630    0.3180 hc        1 MOL      0.071837
    140 H65         9.1730   -5.1780   -0.8870 hc        1 MOL      0.071837
    141 H66         9.6800   -5.1610    0.7480 hc        1 MOL      0.071837
    142 N13         7.9770   -2.6340   -1.6430 n         1 MOL     -0.507741
    143 C46         8.2390   -1.4350   -2.3240 c3        1 MOL      0.231755
    144 C47         7.4720   -0.2040   -1.7990 c         1 MOL      0.288463
    145 O19         7.9840    0.9090   -1.7900 o         1 MOL     -0.514316
    146 C48         7.8430   -1.6440   -3.8350 c3        1 MOL     -0.387203
    147 H67         7.3650   -3.3280   -2.0440 hn        1 MOL      0.325782
    148 H68         9.2840   -1.1290   -2.2740 h1        1 MOL      0.069025
    149 H69         6.8510   -2.0700   -3.9460 hc        1 MOL      0.106102
    150 H70         7.9410   -0.7400   -4.4290 hc        1 MOL      0.106102
    151 H71         8.4880   -2.4490   -4.2110 hc        1 MOL      0.106102
    152 N14         6.2400   -0.3720   -1.2320 n         1 MOL      0.093957
    153 C49         5.5080    0.7210   -0.6950 c3        1 MOL     -0.222566
    154 C50         6.1050    1.0950    0.6840 c         1 MOL      0.464678
    155 O20         5.9410    2.2140    0.9860 o         1 MOL     -0.531572
    156 C51         4.0200    0.3780   -0.7820 c3        1 MOL      0.276552
    157 C52         3.2800    0.3720   -2.1500 c3        1 MOL     -0.399306
    158 C53         2.0280   -0.4270   -2.0190 c         1 MOL      0.929384
    159 O21         2.1050   -1.6440   -2.3480 o         1 MOL     -0.772574
    160 O22         0.9780    0.0810   -1.6340 o         1 MOL     -0.772574
    161 H72         5.8480   -1.3060   -1.2090 hn        1 MOL     -0.013697
    162 H73         5.6450    1.5780   -1.3450 h1        1 MOL      0.117811
    163 H74         3.5130    1.0680   -0.1020 hc        1 MOL     -0.035027
    164 H75         3.9050   -0.5720   -0.2520 hc        1 MOL     -0.035027
    165 H76         4.0330   -0.0920   -2.7780 hc        1 MOL      0.087196
    166 H77         3.1080    1.4210   -2.4160 hc        1 MOL      0.087196
    167 N15         6.6690    0.1900    1.5120 n         1 MOL     -0.098273
    168 C54         6.9940    0.4460    2.9070 c3        1 MOL     -0.333317
    169 H78         7.3080   -0.4830    3.3820 h1        1 MOL      0.122441
    170 H79         7.8030    1.1740    2.9640 h1        1 MOL      0.122441
    171 H80         6.1150    0.8360    3.4190 h1        1 MOL      0.122441
    172 H81         6.8590   -0.7060    1.0800 hn        1 MOL      0.156834
    173 Ca1        -1.5800   -0.1000   -1.5860 Ca        1 MOL      1.800330
    174 O23        -0.2920   -2.4090   -2.3360 oh        1 MOL     -0.902596
    175 H82        -0.0690   -3.3420   -2.3160 ho        1 MOL      0.422160
    176 H83         0.5590   -1.9610   -2.3470 ho        1 MOL      0.422160
    177 O24        -1.6990   -0.9100   -4.0930 oh        1 MOL     -0.902596
    178 H84        -1.9090   -0.8640   -5.0270 ho        1 MOL      0.422160
    179 H85        -1.0100   -1.5680   -4.0380 ho        1 MOL      0.422160
@<TRIPOS>BOND
     1    1    2 1   
     2    1    4 1   
     3    1    5 1   
     4    1    6 1   
     5    2    3 2   
     6    2    7 1   
     7    7    8 1   
     8    7   15 1   
     9    8    9 1   
    10    8   11 1   
    11    8   16 1   
    12    9   10 2   
    13    9   19 1   
    14   11   12 1   
    15   11   17 1   
    16   11   18 1   
    17   12   13 1   
    18   12   14 1   
    19   19   20 1   
    20   19   28 1   
    21   20   21 1   
    22   20   23 1   
    23   20   29 1   
    24   21   22 2   
    25   21   41 1   
    26   23   24 1   
    27   23   30 1   
    28   23   31 1   
    29   24   25 1   
    30   24   32 1   
    31   24   33 1   
    32   25   26 1   
    33   25   34 1   
    34   25   35 1   
    35   26   27 1   
    36   26   36 1   
    37   26   37 1   
    38   27   38 1   
    39   27   39 1   
    40   27   40 1   
    41   41   42 1   
    42   41   49 1   
    43   42   43 1   
    44   42   45 1   
    45   42   50 1   
    46   43   44 2   
    47   43   53 1   
    48   45   46 1   
    49   45   51 1   
    50   45   52 1   
    51   46   47 1   
    52   46   48 1   
    53   53   54 1   
    54   53   57 1   
    55   54   55 1   
    56   54   58 1   
    57   54   59 1   
    58   55   56 2   
    59   55   60 1   
    60   60   61 1   
    61   60   68 1   
    62   61   62 1   
    63   61   64 1   
    64   61   69 1   
    65   62   63 2   
    66   62   74 1   
    67   64   65 1   
    68   64   70 1   
    69   64   71 1   
    70   65   66 1   
    71   65   67 2   
    72   66   72 1   
    73   66   73 1   
    74   74   75 1   
    75   74   78 1   
    76   75   76 1   
    77   75   79 1   
    78   75   80 1   
    79   76   77 2   
    80   76   81 1   
    81   81   82 1   
    82   81   93 1   
    83   82   83 1   
    84   82   85 1   
    85   82   94 1   
    86   83   84 2   
    87   83  102 1   
    88   85   86 1   
    89   85   95 1   
    90   85   96 1   
    91   86   87 ar  
    92   86   88 ar  
    93   87   89 ar  
    94   87   97 1   
    95   88   90 ar  
    96   88   98 1   
    97   89   91 ar  
    98   89   99 1   
    99   90   91 ar  
   100   90  100 1   
   101   91   92 1   
   102   92  101 1   
   103  102  103 1   
   104  102  110 1   
   105  103  104 1   
   106  103  106 1   
   107  103  111 1   
   108  104  105 2   
   109  104  121 1   
   110  106  107 1   
   111  106  108 1   
   112  106  112 1   
   113  107  109 1   
   114  107  113 1   
   115  107  114 1   
   116  108  115 1   
   117  108  116 1   
   118  108  117 1   
   119  109  118 1   
   120  109  119 1   
   121  109  120 1   
   122  121  122 1   
   123  121  127 1   
   124  122  123 1   
   125  122  125 1   
   126  122  128 1   
   127  123  124 2   
   128  123  132 1   
   129  125  126 1   
   130  125  129 1   
   131  125  130 1   
   132  126  131 1   
   133  132  133 1   
   134  132  137 1   
   135  133  134 1   
   136  133  136 1   
   137  133  138 1   
   138  134  135 2   
   139  134  142 1   
   140  136  139 1   
   141  136  140 1   
   142  136  141 1   
   143  142  143 1   
   144  142  147 1   
   145  143  144 1   
   146  143  146 1   
   147  143  148 1   
   148  144  145 2   
   149  144  152 1   
   150  146  149 1   
   151  146  150 1   
   152  146  151 1   
   153  152  153 1   
   154  152  161 1   
   155  153  154 1   
   156  153  156 1   
   157  153  162 1   
   158  154  155 2   
   159  154  167 1   
   160  156  157 1   
   161  156  163 1   
   162  156  164 1   
   163  157  158 1   
   164  157  165 1   
   165  157  166 1   
   166  158  159 1   
   167  158  160 1   
   168  167  168 1   
   169  167  172 1   
   170  168  169 1   
   171  168  170 1   
   172  168  171 1   
   173  174  175 1   
   174  174  176 1   
   175  177  178 1   
   176  177  179 1   
@<TRIPOS>SUBSTRUCTURE
     1 MOL         1 TEMP              0 ****  ****    0 ROOT
