@<TRIPOS>MOLECULE
MOL
  179   176     1     0     0
SMALL
resp


@<TRIPOS>ATOM
      1 C1          2.0790    3.1390    4.8810 c3        1 MOL     -0.389002
      2 C2          1.5160    2.7820    3.5090 c         1 MOL      0.701141
      3 O1          2.1850    2.6400    2.5070 o         1 MOL     -0.624288
      4 H1          1.5230    3.9800    5.2950 hc        1 MOL      0.099440
      5 H2          1.9880    2.2800    5.5470 hc        1 MOL      0.099440
      6 H3          3.1300    3.4120    4.7840 hc        1 MOL      0.099440
      7 N1          0.1910    2.6900    3.4720 n         1 MOL     -0.638774
      8 C3         -0.7330    2.4030    2.3070 c3        1 MOL      0.068028
      9 C4         -0.9840    3.7320    1.5470 c         1 MOL      0.546343
     10 O2         -2.0520    4.3930    1.6010 o         1 MOL     -0.501675
     11 C5         -2.0160    1.6720    2.7900 c3        1 MOL     -0.033221
     12 C6         -2.9470    1.4240    1.6020 c         1 MOL      0.680038
     13 O3         -4.1830    1.1710    1.7930 o         1 MOL     -0.699329
     14 O4         -2.4580    1.4300    0.4430 o         1 MOL     -0.699329
     15 H4         -0.2050    2.8860    4.3740 hn        1 MOL      0.329093
     16 H5         -0.2320    1.7050    1.6290 h1        1 MOL      0.072148
     17 H6         -2.5220    2.2000    3.6050 hc        1 MOL      0.019981
     18 H7         -1.7210    0.7070    3.1860 hc        1 MOL      0.019981
     19 N2          0.0280    4.1380    0.8370 n         1 MOL     -0.454779
     20 C7          0.1700    5.4110    0.0530 c3        1 MOL      0.054101
     21 C8         -1.0230    5.6610   -0.9490 c         1 MOL      0.452905
     22 O5         -1.1690    6.8580   -1.2490 o         1 MOL     -0.553888
     23 C9          1.6120    5.5290   -0.5980 c3        1 MOL     -0.403868
     24 C10         2.8020    5.5230    0.3420 c3        1 MOL     -0.012627
     25 C11         2.6180    6.7460    1.2440 c3        1 MOL     -0.012163
     26 C12         3.8950    7.3630    1.7850 c3        1 MOL     -0.321622
     27 N3          4.4890    6.4450    2.7470 n4        1 MOL     -0.268876
     28 H8          0.8700    3.5870    0.7410 hn        1 MOL      0.410050
     29 H9          0.1550    6.2400    0.7620 h1        1 MOL      0.049765
     30 H10         1.6960    6.4500   -1.1740 hc        1 MOL      0.157832
     31 H11         1.6710    4.6440   -1.2340 hc        1 MOL      0.157832
     32 H12         3.7110    5.5590   -0.2570 hc        1 MOL      0.062834
     33 H13         2.8100    4.5190    0.7670 hc        1 MOL      0.062834
     34 H14         1.9870    6.4500    2.0840 hc        1 MOL      0.077219
     35 H15         2.0440    7.5640    0.8120 hc        1 MOL      0.077219
     36 H16         3.5510    8.1780    2.4090 hx        1 MOL      0.194437
     37 H17         4.5710    7.5390    0.9510 hx        1 MOL      0.194437
     38 H18         5.2380    6.9280    3.2290 hn        1 MOL      0.315671
     39 H19         3.8390    6.1800    3.4720 hn        1 MOL      0.315671
     40 H20         4.7920    5.6400    2.2140 hn        1 MOL      0.315671
     41 N4         -1.7290    4.6660   -1.5190 n         1 MOL     -0.177886
     42 C13        -2.8870    4.7650   -2.4920 c3        1 MOL      0.007818
     43 C14        -4.2120    4.4020   -1.7860 c         1 MOL      0.447218
     44 O6         -5.3300    4.5240   -2.2920 o         1 MOL     -0.541793
     45 C15        -2.5670    3.9940   -3.7620 c3        1 MOL     -0.236588
     46 C16        -2.2740    2.4850   -3.8210 c         1 MOL      0.781187
     47 O7         -1.7770    1.9800   -4.8630 o         1 MOL     -0.714811
     48 O8         -2.4190    1.7920   -2.7820 o         1 MOL     -0.714811
     49 H21        -1.4960    3.7310   -1.2240 hn        1 MOL      0.208241
     50 H22        -3.0070    5.8220   -2.7290 h1        1 MOL      0.102765
     51 H23        -1.6620    4.3810   -4.2230 hc        1 MOL      0.062556
     52 H24        -3.3950    4.0250   -4.4750 hc        1 MOL      0.062556
     53 N5         -4.1140    4.0140   -0.4920 n         1 MOL     -0.044720
     54 C17        -5.2900    3.9830    0.3960 c3        1 MOL     -0.223015
     55 C18        -6.2110    2.7380    0.1000 c         1 MOL      0.539999
     56 O9         -7.3490    2.7620    0.5320 o         1 MOL     -0.580636
     57 H25        -3.2260    3.7630   -0.0580 hn        1 MOL     -0.058181
     58 H26        -5.8720    4.8920    0.2430 h1        1 MOL      0.124743
     59 H27        -5.0020    3.9010    1.4420 h1        1 MOL      0.124743
     60 N6         -5.7180    1.7280   -0.6200 n         1 MOL     -0.155652
     61 C19        -6.5040    0.6210   -1.1350 c3        1 MOL     -0.191391
     62 C20        -6.7220   -0.5500   -0.1510 c         1 MOL      0.370306
     63 O10        -7.4100   -1.5080   -0.4680 o         1 MOL     -0.507456
     64 C21        -5.9930    0.1710   -2.4910 c3        1 MOL     -0.073087
     65 C22        -4.8210   -0.7680   -2.3190 c         1 MOL      0.575413
     66 N7         -4.6600   -1.6530   -3.3300 n         1 MOL     -0.802547
     67 O11        -3.9540   -0.6730   -1.4990 o         1 MOL     -0.639889
     68 H28        -4.8080    1.8770   -1.0130 hn        1 MOL      0.188224
     69 H29        -7.4950    1.0210   -1.3500 h1        1 MOL      0.136055
     70 H30        -5.6900    1.0180   -3.1050 hc        1 MOL      0.074637
     71 H31        -6.7670   -0.3600   -3.0490 hc        1 MOL      0.074637
     72 H32        -5.4350   -1.8060   -3.9560 hn        1 MOL      0.375952
     73 H33        -3.8420   -2.2360   -3.3120 hn        1 MOL      0.375952
     74 N8         -6.1400   -0.4720    0.9880 n         1 MOL      0.011020
     75 C23        -6.2790   -1.4620    2.0840 c3        1 MOL     -0.529711
     76 C24        -5.2620   -2.6260    2.0820 c         1 MOL      0.810966
     77 O12        -5.3880   -3.6010    2.8020 o         1 MOL     -0.574888
     78 H34        -5.4790    0.2410    1.2740 hn        1 MOL      0.224635
     79 H35        -7.2790   -1.8820    1.9730 h1        1 MOL      0.173408
     80 H36        -6.1940   -0.9520    3.0360 h1        1 MOL      0.173408
     81 N9         -4.0760   -2.3200    1.5550 n         1 MOL     -0.741658
     82 C25        -2.9080   -3.2290    1.3860 c3        1 MOL      0.338544
     83 C26        -1.5810   -2.4560    1.4810 c         1 MOL      0.524501
     84 O13        -1.4920   -1.4290    0.8080 o         1 MOL     -0.628480
     85 C27        -2.9280   -3.9790    0.0710 c3        1 MOL      0.040087
     86 C28        -3.9300   -5.1080   -0.0690 ca        1 MOL     -0.037638
     87 C29        -5.2240   -4.8110   -0.4650 ca        1 MOL     -0.232759
     88 C30        -3.6280   -6.3560    0.5600 ca        1 MOL     -0.232759
     89 C31        -6.2580   -5.7230   -0.1840 ca        1 MOL     -0.137824
     90 C32        -4.6450   -7.3250    0.6880 ca        1 MOL     -0.137824
     91 C33        -6.0030   -7.0290    0.2850 ca        1 MOL      0.242372
     92 O14        -7.0230   -7.8320    0.6250 oh        1 MOL     -0.427753
     93 H37        -4.0510   -1.4830    0.9830 hn        1 MOL      0.452679
     94 H38        -2.8360   -4.0150    2.1400 h1        1 MOL     -0.009194
     95 H39        -1.9860   -4.4850   -0.1060 hc        1 MOL      0.019803
     96 H40        -3.0570   -3.2360   -0.7240 hc        1 MOL      0.019803
     97 H41        -5.5030   -3.8250   -0.7980 ha        1 MOL      0.147322
     98 H42        -2.6760   -6.4070    1.0770 ha        1 MOL      0.147322
     99 H43        -7.2420   -5.5730   -0.5990 ha        1 MOL      0.114647
    100 H44        -4.4340   -8.2840    1.1330 ha        1 MOL      0.114647
    101 H45        -6.6800   -8.5440    1.1860 ho        1 MOL      0.342599
    102 N10        -0.5180   -2.9960    2.0580 n         1 MOL     -0.588702
    103 C34         0.8800   -2.5070    1.8490 c3        1 MOL      0.023482
    104 C35         1.5990   -3.4840    0.9020 c         1 MOL      0.625045
    105 O15         1.4380   -4.7030    0.9540 o         1 MOL     -0.580863
    106 C36         1.6190   -2.3200    3.2230 c3        1 MOL      0.251597
    107 C37         0.8130   -1.3530    4.1490 c3        1 MOL     -0.047175
    108 C38         3.1460   -1.9430    3.1190 c3        1 MOL     -0.299478
    109 C39         1.2420   -1.4630    5.5930 c3        1 MOL     -0.187909
    110 H46        -0.5930   -3.8640    2.5740 hn        1 MOL      0.318199
    111 H47         0.9670   -1.5050    1.4240 h1        1 MOL      0.099249
    112 H48         1.5480   -3.3030    3.6960 hc        1 MOL     -0.026996
    113 H49        -0.2130   -1.7100    4.2470 hc        1 MOL      0.066152
    114 H50         1.0080   -0.2940    3.9560 hc        1 MOL      0.066152
    115 H51         3.6270   -1.8920    4.0960 hc        1 MOL      0.064479
    116 H52         3.5850   -2.7850    2.5820 hc        1 MOL      0.064479
    117 H53         3.3100   -1.0020    2.5850 hc        1 MOL      0.064479
    118 H54         0.6010   -0.8130    6.1890 hc        1 MOL      0.042856
    119 H55         1.1660   -2.5030    5.9350 hc        1 MOL      0.042856
    120 H56         2.2770   -1.1580    5.7240 hc        1 MOL      0.042856
    121 N11         2.3370   -2.8720   -0.0670 n         1 MOL     -0.459377
    122 C40         3.2780   -3.5240   -0.9510 c3        1 MOL      0.316598
    123 C41         4.7590   -3.4360   -0.3960 c         1 MOL      0.208351
    124 O16         5.0860   -2.4930    0.3660 o         1 MOL     -0.225061
    125 C42         3.1250   -2.9880   -2.3370 c3        1 MOL     -0.170982
    126 O17         4.2020   -2.1310   -2.5450 oh        1 MOL     -0.289888
    127 H57         2.3420   -1.8690   -0.0950 hn        1 MOL      0.238805
    128 H58         3.0980   -4.5900   -1.1110 h1        1 MOL      0.001196
    129 H59         2.1400   -2.5330   -2.4350 h1        1 MOL      0.082400
    130 H60         3.2820   -3.7120   -3.1430 h1        1 MOL      0.082400
    131 H61         3.9540   -1.5240   -3.2480 ho        1 MOL      0.360191
    132 N12         5.6370   -4.4060   -0.7340 n         1 MOL     -0.359071
    133 C43         7.1130   -4.3530   -0.4820 c3        1 MOL      0.029283
    134 C44         7.6960   -3.1390   -1.1560 c         1 MOL      0.550340
    135 O18         8.7020   -2.6420   -0.6380 o         1 MOL     -0.559714
    136 C45         7.8280   -5.6630   -0.9450 c3        1 MOL     -0.239999
    137 H62         5.2720   -5.1620   -1.2930 hn        1 MOL      0.294809
    138 H63         7.3390   -4.1760    0.5650 h1        1 MOL      0.125909
    139 H64         8.9220   -5.6690   -0.9830 hc        1 MOL      0.085528
    140 H65         7.5350   -6.5140   -0.3450 hc        1 MOL      0.085528
    141 H66         7.5360   -5.8470   -1.9780 hc        1 MOL      0.085528
    142 N13         7.0620   -2.5670   -2.1570 n         1 MOL     -0.296170
    143 C46         7.5120   -1.2770   -2.7920 c3        1 MOL     -0.061054
    144 C47         7.0700   -0.0120   -1.9850 c         1 MOL      0.491929
    145 O19         7.7270    1.0490   -2.0770 o         1 MOL     -0.513944
    146 C48         7.1000   -1.4320   -4.2020 c3        1 MOL     -0.047146
    147 H67         6.1420   -2.7940   -2.5100 hn        1 MOL      0.165477
    148 H68         8.6040   -1.3130   -2.6930 h1        1 MOL      0.129364
    149 H69         7.3120   -0.5390   -4.7900 hc        1 MOL      0.024115
    150 H70         7.5880   -2.2530   -4.7330 hc        1 MOL      0.024115
    151 H71         6.0290   -1.6180   -4.2680 hc        1 MOL      0.024115
    152 N14         5.9110   -0.0630   -1.2590 n         1 MOL     -0.050887
    153 C49         5.6080    0.9910   -0.3350 c3        1 MOL     -0.046793
    154 C50         6.4820    0.8150    0.9310 c         1 MOL      0.389388
    155 O20         7.0250    1.8160    1.3080 o         1 MOL     -0.547620
    156 C51         4.1260    1.0180   -0.0460 c3        1 MOL      0.069690
    157 C52         3.0870    1.0780   -1.3130 c3        1 MOL     -0.069958
    158 C53         1.6060    0.9910   -0.8910 c         1 MOL      0.962135
    159 O21         0.8290    1.9810   -1.0070 o         1 MOL     -0.860790
    160 O22         1.1350   -0.0950   -0.5210 o         1 MOL     -0.860790
    161 H72         5.4570   -0.9490   -1.1040 hn        1 MOL     -0.224989
    162 H73         5.8370    1.9430   -0.8270 h1        1 MOL      0.088682
    163 H74         3.9000    1.9040    0.5400 hc        1 MOL     -0.011986
    164 H75         3.8450    0.1400    0.5350 hc        1 MOL     -0.011986
    165 H76         3.3470    0.2300   -1.9500 hc        1 MOL     -0.026831
    166 H77         3.2830    1.9520   -1.9360 hc        1 MOL     -0.026831
    167 N15         6.7910   -0.3920    1.3670 n         1 MOL      0.050036
    168 C54         7.8370   -0.6700    2.3270 c3        1 MOL     -0.300187
    169 H78         7.6000   -0.1850    3.2740 h1        1 MOL      0.111869
    170 H79         7.9140   -1.7470    2.4810 h1        1 MOL      0.111869
    171 H80         8.7870   -0.2880    1.9510 h1        1 MOL      0.111869
    172 H81         6.2440   -1.1480    0.9700 hn        1 MOL      0.014089
    173 Ca1        -1.3780    0.0230   -1.3750 Ca        1 MOL      1.792681
    174 O23        -1.2890   -2.4870   -2.4250 oh        1 MOL     -0.879496
    175 H82        -0.9520   -2.4480   -3.3180 ho        1 MOL      0.418519
    176 H83        -1.2870   -3.4250   -2.2160 ho        1 MOL      0.418519
    177 O24        -0.0080    0.1660   -3.7050 oh        1 MOL     -0.879496
    178 H84         0.8900   -0.0310   -3.9530 ho        1 MOL      0.418519
    179 H85        -0.4680    0.2860   -4.5410 ho        1 MOL      0.418519
@<TRIPOS>BOND
     1    1    2 1   
     2    1    4 1   
     3    1    5 1   
     4    1    6 1   
     5    2    3 2   
     6    2    7 1   
     7    7    8 1   
     8    7   15 1   
     9    8    9 1   
    10    8   11 1   
    11    8   16 1   
    12    9   10 2   
    13    9   19 1   
    14   11   12 1   
    15   11   17 1   
    16   11   18 1   
    17   12   13 1   
    18   12   14 1   
    19   19   20 1   
    20   19   28 1   
    21   20   21 1   
    22   20   23 1   
    23   20   29 1   
    24   21   22 2   
    25   21   41 1   
    26   23   24 1   
    27   23   30 1   
    28   23   31 1   
    29   24   25 1   
    30   24   32 1   
    31   24   33 1   
    32   25   26 1   
    33   25   34 1   
    34   25   35 1   
    35   26   27 1   
    36   26   36 1   
    37   26   37 1   
    38   27   38 1   
    39   27   39 1   
    40   27   40 1   
    41   41   42 1   
    42   41   49 1   
    43   42   43 1   
    44   42   45 1   
    45   42   50 1   
    46   43   44 2   
    47   43   53 1   
    48   45   46 1   
    49   45   51 1   
    50   45   52 1   
    51   46   47 1   
    52   46   48 1   
    53   53   54 1   
    54   53   57 1   
    55   54   55 1   
    56   54   58 1   
    57   54   59 1   
    58   55   56 2   
    59   55   60 1   
    60   60   61 1   
    61   60   68 1   
    62   61   62 1   
    63   61   64 1   
    64   61   69 1   
    65   62   63 2   
    66   62   74 1   
    67   64   65 1   
    68   64   70 1   
    69   64   71 1   
    70   65   66 1   
    71   65   67 2   
    72   66   72 1   
    73   66   73 1   
    74   74   75 1   
    75   74   78 1   
    76   75   76 1   
    77   75   79 1   
    78   75   80 1   
    79   76   77 2   
    80   76   81 1   
    81   81   82 1   
    82   81   93 1   
    83   82   83 1   
    84   82   85 1   
    85   82   94 1   
    86   83   84 2   
    87   83  102 1   
    88   85   86 1   
    89   85   95 1   
    90   85   96 1   
    91   86   87 ar  
    92   86   88 ar  
    93   87   89 ar  
    94   87   97 1   
    95   88   90 ar  
    96   88   98 1   
    97   89   91 ar  
    98   89   99 1   
    99   90   91 ar  
   100   90  100 1   
   101   91   92 1   
   102   92  101 1   
   103  102  103 1   
   104  102  110 1   
   105  103  104 1   
   106  103  106 1   
   107  103  111 1   
   108  104  105 2   
   109  104  121 1   
   110  106  107 1   
   111  106  108 1   
   112  106  112 1   
   113  107  109 1   
   114  107  113 1   
   115  107  114 1   
   116  108  115 1   
   117  108  116 1   
   118  108  117 1   
   119  109  118 1   
   120  109  119 1   
   121  109  120 1   
   122  121  122 1   
   123  121  127 1   
   124  122  123 1   
   125  122  125 1   
   126  122  128 1   
   127  123  124 2   
   128  123  132 1   
   129  125  126 1   
   130  125  129 1   
   131  125  130 1   
   132  126  131 1   
   133  132  133 1   
   134  132  137 1   
   135  133  134 1   
   136  133  136 1   
   137  133  138 1   
   138  134  135 2   
   139  134  142 1   
   140  136  139 1   
   141  136  140 1   
   142  136  141 1   
   143  142  143 1   
   144  142  147 1   
   145  143  144 1   
   146  143  146 1   
   147  143  148 1   
   148  144  145 2   
   149  144  152 1   
   150  146  149 1   
   151  146  150 1   
   152  146  151 1   
   153  152  153 1   
   154  152  161 1   
   155  153  154 1   
   156  153  156 1   
   157  153  162 1   
   158  154  155 2   
   159  154  167 1   
   160  156  157 1   
   161  156  163 1   
   162  156  164 1   
   163  157  158 1   
   164  157  165 1   
   165  157  166 1   
   166  158  159 1   
   167  158  160 1   
   168  167  168 1   
   169  167  172 1   
   170  168  169 1   
   171  168  170 1   
   172  168  171 1   
   173  174  175 1   
   174  174  176 1   
   175  177  178 1   
   176  177  179 1   
@<TRIPOS>SUBSTRUCTURE
     1 MOL         1 TEMP              0 ****  ****    0 ROOT
