@<TRIPOS>MOLECULE
MOL
  182   178     1     0     0
SMALL
resp


@<TRIPOS>ATOM
      1 C1          2.7400    2.5350    5.1470 c3        1 MOL     -0.333368
      2 C2          1.8520    2.6330    3.9070 c         1 MOL      0.746790
      3 O1          2.3220    2.9190    2.8170 o         1 MOL     -0.597168
      4 H1          2.1720    2.0940    5.9660 hc        1 MOL      0.082811
      5 H2          3.6040    1.9090    4.9260 hc        1 MOL      0.082811
      6 H3          3.0760    3.5310    5.4330 hc        1 MOL      0.082811
      7 N1          0.5680    2.3420    4.0340 n         1 MOL     -0.632149
      8 C3         -0.3700    2.2510    2.9270 c3        1 MOL      0.106090
      9 C4         -0.4950    3.5970    2.1960 c         1 MOL      0.473203
     10 O2         -0.8660    4.5580    2.8560 o         1 MOL     -0.515840
     11 C5         -1.6880    1.6200    3.3530 c3        1 MOL     -0.104765
     12 C6         -2.4020    0.9330    2.1050 c         1 MOL      0.567046
     13 O3         -2.0360    1.2250    0.9150 o         1 MOL     -0.648363
     14 O4         -3.4470    0.3340    2.3620 o         1 MOL     -0.648363
     15 H4          0.1640    2.1930    4.9470 hn        1 MOL      0.335757
     16 H5          0.1070    1.5690    2.2230 h1        1 MOL      0.051783
     17 H6         -2.3980    2.3990    3.6340 hc        1 MOL      0.037970
     18 H7         -1.4970    0.9210    4.1660 hc        1 MOL      0.037970
     19 N2         -0.3760    3.5500    0.8500 n         1 MOL     -0.045007
     20 C7         -0.1540    4.8190    0.1280 c3        1 MOL     -0.010741
     21 C8         -1.5260    5.4250   -0.0510 c         1 MOL      0.423723
     22 O5         -1.8710    6.4270    0.5470 o         1 MOL     -0.529140
     23 C9          0.8010    4.5320   -1.1200 c3        1 MOL     -0.053807
     24 C10         0.7370    5.7590   -2.0270 c3        1 MOL     -0.198952
     25 C11         1.3810    6.9720   -1.4560 c3        1 MOL      0.339757
     26 C12         1.4850    8.1290   -2.3720 c3        1 MOL     -0.050881
     27 N3          2.1350    9.3690   -1.8530 n4        1 MOL     -0.342418
     28 H8         -0.0290    2.7050    0.4000 hn        1 MOL      0.005868
     29 H9          0.3550    5.5700    0.7260 h1        1 MOL      0.026114
     30 H10         0.5270    3.6430   -1.6940 hc        1 MOL      0.080048
     31 H11         1.8190    4.3720   -0.7500 hc        1 MOL      0.080048
     32 H12        -0.3110    6.0040   -2.2260 hc        1 MOL      0.015510
     33 H13         1.2890    5.5220   -2.9330 hc        1 MOL      0.015510
     34 H14         2.3710    6.6600   -1.0960 hc        1 MOL     -0.041073
     35 H15         0.8690    7.3310   -0.5660 hc        1 MOL     -0.041073
     36 H16         0.4900    8.4120   -2.7000 hx        1 MOL      0.083194
     37 H17         2.0800    7.7280   -3.1990 hx        1 MOL      0.083194
     38 H18         2.3330   10.0320   -2.5960 hn        1 MOL      0.325826
     39 H19         1.5190    9.8250   -1.1930 hn        1 MOL      0.325826
     40 H20         3.0430    9.2450   -1.4460 hn        1 MOL      0.325826
     41 N4         -2.3870    4.7050   -0.7650 n         1 MOL     -0.220575
     42 C13        -3.7970    5.0380   -1.0860 c3        1 MOL      0.023941
     43 C14        -4.7200    4.5070    0.0540 c         1 MOL      0.388704
     44 O6         -5.8590    4.9450    0.1530 o         1 MOL     -0.528954
     45 C15        -4.2780    4.3510   -2.3820 c3        1 MOL     -0.229835
     46 C16        -4.0050    2.8860   -2.6750 c         1 MOL      0.836316
     47 O7         -4.3850    2.4180   -3.7280 o         1 MOL     -0.723029
     48 O8         -3.2120    2.2830   -1.9450 o         1 MOL     -0.723029
     49 H21        -2.1650    3.7770   -1.0990 hn        1 MOL      0.122870
     50 H22        -3.9700    6.1090   -1.2030 h1        1 MOL      0.090430
     51 H23        -3.7340    4.8930   -3.1540 hc        1 MOL      0.061387
     52 H24        -5.3190    4.5830   -2.5890 hc        1 MOL      0.061387
     53 N5         -4.2120    3.6380    0.9110 n         1 MOL     -0.105256
     54 C17        -4.9980    3.0470    1.9770 c3        1 MOL     -0.103374
     55 C18        -5.9840    1.8820    1.5210 c         1 MOL      0.533762
     56 O9         -6.9830    1.6040    2.0970 o         1 MOL     -0.568612
     57 H25        -3.2560    3.3320    0.8740 hn        1 MOL      0.137617
     58 H26        -5.6050    3.7850    2.5130 h1        1 MOL      0.083198
     59 H27        -4.4050    2.6500    2.8010 h1        1 MOL      0.083198
     60 N6         -5.6040    1.2420    0.4320 n         1 MOL     -0.232289
     61 C19        -6.4280    0.0510   -0.0970 c3        1 MOL     -0.006392
     62 C20        -6.3690   -1.3010    0.6180 c         1 MOL      0.206916
     63 O10        -6.9700   -2.2500    0.2910 o         1 MOL     -0.397599
     64 C21        -6.3930   -0.1880   -1.6460 c3        1 MOL     -0.335153
     65 C22        -5.0660   -0.8460   -2.0410 c         1 MOL      0.854599
     66 N7         -5.0100   -1.4710   -3.1020 n         1 MOL     -0.759413
     67 O11        -4.0420   -0.7230   -1.3420 o         1 MOL     -0.805124
     68 H28        -4.7380    1.4940   -0.0340 hn        1 MOL      0.121047
     69 H29        -7.4620    0.3620    0.0520 h1        1 MOL      0.143498
     70 H30        -6.5160    0.7790   -2.1430 hc        1 MOL      0.112510
     71 H31        -7.1910   -0.8800   -1.9130 hc        1 MOL      0.112510
     72 H32        -5.8250   -1.5770   -3.6820 hn        1 MOL      0.375922
     73 H33        -4.1310   -1.9650   -3.2100 hn        1 MOL      0.375922
     74 N8         -5.6420   -1.3830    1.7310 n         1 MOL      0.013842
     75 C23        -5.5310   -2.5550    2.6070 c3        1 MOL     -0.399862
     76 C24        -4.5070   -3.5620    2.0420 c         1 MOL      0.745994
     77 O12        -4.4610   -4.6720    2.5240 o         1 MOL     -0.580804
     78 H34        -5.2250   -0.5020    2.0070 hn        1 MOL      0.214637
     79 H35        -6.5260   -2.9640    2.7410 h1        1 MOL      0.146652
     80 H36        -5.0880   -2.1410    3.5100 h1        1 MOL      0.146652
     81 N9         -3.6230   -3.1330    1.1400 n         1 MOL     -0.581097
     82 C25        -2.4690   -3.9110    0.6080 c3        1 MOL      0.436160
     83 C26        -1.1700   -3.0410    0.4930 c         1 MOL      0.224429
     84 O13        -1.2640   -1.9580   -0.0420 o         1 MOL     -0.590644
     85 C27        -2.6860   -4.5030   -0.7530 c3        1 MOL      0.004827
     86 C28        -3.9550   -5.3330   -0.9100 ca        1 MOL     -0.038317
     87 C29        -5.2070   -4.7500   -0.9960 ca        1 MOL     -0.169464
     88 C30        -3.8450   -6.7500   -0.8800 ca        1 MOL     -0.169464
     89 C31        -6.3790   -5.5220   -1.1390 ca        1 MOL     -0.206101
     90 C32        -5.0430   -7.5320   -1.0150 ca        1 MOL     -0.206101
     91 C33        -6.3330   -6.9260   -1.1660 ca        1 MOL      0.329819
     92 O14        -7.4960   -7.6340   -1.2540 oh        1 MOL     -0.517255
     93 H37        -3.7000   -2.1750    0.8490 hn        1 MOL      0.324469
     94 H38        -2.3460   -4.7740    1.2670 h1        1 MOL     -0.021642
     95 H39        -1.8190   -5.1380   -0.9610 hc        1 MOL      0.003505
     96 H40        -2.7570   -3.6980   -1.4830 hc        1 MOL      0.003505
     97 H41        -5.3360   -3.6790   -0.9480 ha        1 MOL      0.125537
     98 H42        -2.8650   -7.2000   -0.7910 ha        1 MOL      0.125537
     99 H43        -7.3440   -5.0220   -1.1810 ha        1 MOL      0.112067
    100 H44        -4.9450   -8.6100   -1.0150 ha        1 MOL      0.112067
    101 H45        -7.5330   -8.5320   -0.9080 ho        1 MOL      0.386962
    102 N10        -0.0710   -3.4790    0.9640 n         1 MOL     -0.269714
    103 C34         1.3170   -2.8680    0.9400 c3        1 MOL     -0.069926
    104 C35         2.4720   -3.7420    0.4470 c         1 MOL      0.421678
    105 O15         2.6560   -4.9240    0.8060 o         1 MOL     -0.509825
    106 C36         1.7090   -2.0810    2.2300 c3        1 MOL     -0.048092
    107 C37         1.9090   -3.0010    3.4660 c3        1 MOL      0.035960
    108 C38         0.5570   -1.0860    2.5720 c3        1 MOL      0.117882
    109 C39         2.4100   -2.3780    4.7390 c3        1 MOL     -0.204804
    110 H46        -0.1360   -4.3230    1.5340 hn        1 MOL      0.235179
    111 H47         1.1530   -2.0800    0.2030 h1        1 MOL      0.176555
    112 H48         2.6030   -1.4810    2.0500 hc        1 MOL      0.038726
    113 H49         2.6420   -3.7660    3.2160 hc        1 MOL      0.037939
    114 H50         1.0160   -3.5760    3.7140 hc        1 MOL      0.037939
    115 H51         0.9130   -0.3330    3.2670 hc        1 MOL     -0.009986
    116 H52         0.2800   -0.5180    1.6820 hc        1 MOL     -0.009986
    117 H53        -0.3170   -1.5960    2.9680 hc        1 MOL     -0.009986
    118 H54         3.2400   -1.7110    4.5070 hc        1 MOL      0.041737
    119 H55         1.6470   -1.8130    5.2750 hc        1 MOL      0.041737
    120 H56         2.7740   -3.2340    5.3200 hc        1 MOL      0.041737
    121 N11         3.1850   -3.0840   -0.5210 n         1 MOL     -0.160166
    122 C40         4.3250   -3.5560   -1.3330 c3        1 MOL      0.045769
    123 C41         5.6220   -3.3580   -0.5740 c         1 MOL      0.453255
    124 O16         5.6670   -2.5750    0.3510 o         1 MOL     -0.381786
    125 C42         4.2390   -2.8370   -2.6520 c3        1 MOL     -0.120729
    126 O17         4.7340   -1.5080   -2.5080 oh        1 MOL     -0.483392
    127 H57         2.8840   -2.1250   -0.6610 hn        1 MOL     -0.022080
    128 H58         4.1950   -4.6240   -1.4750 h1        1 MOL      0.064493
    129 H59         3.2050   -2.7000   -2.9610 h1        1 MOL      0.100702
    130 H60         4.7790   -3.4290   -3.3980 h1        1 MOL      0.100702
    131 H61         4.1000   -0.9700   -2.9950 ho        1 MOL      0.419470
    132 N12         6.6720   -4.0330   -0.9840 n         1 MOL     -0.420709
    133 C43         8.0030   -3.7200   -0.4740 c3        1 MOL      0.066149
    134 C44         8.4770   -2.3100   -0.8530 c         1 MOL      0.549606
    135 O18         9.4400   -1.9600   -0.2290 o         1 MOL     -0.544782
    136 C45         8.9880   -4.8430   -0.8510 c3        1 MOL     -0.273576
    137 H62         6.5600   -4.6000   -1.8130 hn        1 MOL      0.275899
    138 H63         7.9200   -3.7420    0.6190 h1        1 MOL      0.111856
    139 H64         9.1590   -4.8670   -1.9320 hc        1 MOL      0.089837
    140 H65        10.0050   -4.6790   -0.4780 hc        1 MOL      0.089837
    141 H66         8.6410   -5.8090   -0.4980 hc        1 MOL      0.089837
    142 N13         7.9140   -1.5720   -1.7740 n         1 MOL     -0.449035
    143 C46         8.3390   -0.2310   -1.9800 c3        1 MOL      0.348819
    144 C47         7.5580    0.6830   -1.0520 c         1 MOL      0.305239
    145 O19         8.1230    1.5240   -0.3560 o         1 MOL     -0.479330
    146 C48         8.0460    0.0810   -3.3850 c3        1 MOL     -0.276051
    147 H67         7.1080   -1.9260   -2.2720 hn        1 MOL      0.275330
    148 H68         9.3740    0.0380   -1.7560 h1        1 MOL      0.036701
    149 H69         8.0910    1.1450   -3.6120 hc        1 MOL      0.056164
    150 H70         8.5870   -0.6340   -4.0090 hc        1 MOL      0.056164
    151 H71         6.9980   -0.1680   -3.5310 hc        1 MOL      0.056164
    152 N14         6.2490    0.4400   -0.8300 n         1 MOL     -0.131751
    153 C49         5.4760    1.2350    0.1690 c3        1 MOL     -0.032906
    154 C50         6.0850    1.2190    1.6480 c         1 MOL      0.386935
    155 O20         6.3160    2.2560    2.2560 o         1 MOL     -0.516495
    156 C51         4.0140    0.6590    0.2840 c3        1 MOL      0.085873
    157 C52         3.0810    1.4510   -0.6260 c3        1 MOL      0.232806
    158 C53         1.8040    0.6110   -0.8440 c         1 MOL      0.428009
    159 O21         0.6910    1.1900   -0.5020 o         1 MOL     -0.587966
    160 O22         1.9230   -0.4640   -1.5070 o         1 MOL     -0.587966
    161 H72         5.7540   -0.3300   -1.2540 hn        1 MOL      0.013328
    162 H73         5.2250    2.2800   -0.0140 h1        1 MOL      0.046501
    163 H74         3.6720    0.8570    1.2940 hc        1 MOL     -0.004672
    164 H75         4.0790   -0.4040    0.0790 hc        1 MOL     -0.004672
    165 H76         3.4920    1.6800   -1.6050 hc        1 MOL     -0.068374
    166 H77         2.8130    2.4520   -0.3020 hc        1 MOL     -0.068374
    167 N15         6.5070    0.0030    1.9930 n         1 MOL      0.011973
    168 C54         7.3050   -0.4100    3.1100 c3        1 MOL     -0.186779
    169 H78         6.6540   -0.7040    3.9320 h1        1 MOL      0.081725
    170 H79         7.9270   -1.2580    2.8200 h1        1 MOL      0.081725
    171 H80         7.9410    0.4150    3.4280 h1        1 MOL      0.081725
    172 H81         6.1370   -0.7070    1.3740 hn        1 MOL      0.046387
    173 Ca1        -1.5780    0.3610   -1.4990 Ca        1 MOL      1.795776
    174 O23        -0.2090   -1.6850   -2.5170 oh        1 MOL     -0.850245
    175 H82         0.6420   -1.4950   -2.1220 ho        1 MOL      0.411239
    176 H83        -0.2280   -2.6430   -2.5890 ho        1 MOL      0.411239
    177 O24        -2.4660    0.2840   -4.1550 oh        1 MOL     -0.850245
    178 H84        -2.9700    1.0800   -4.2390 ho        1 MOL      0.411239
    179 H85        -2.5240   -0.1340   -5.0210 ho        1 MOL      0.411239
    180 O25        -0.1170    1.5010   -3.4060 oh        1 MOL     -0.850245
    181 H86         0.8280    1.5830   -3.3250 ho        1 MOL      0.411239
    182 H87        -0.2920    1.6360   -4.3410 ho        1 MOL      0.411239
@<TRIPOS>BOND
     1    1    2 1   
     2    1    4 1   
     3    1    5 1   
     4    1    6 1   
     5    2    3 2   
     6    2    7 1   
     7    7    8 1   
     8    7   15 1   
     9    8    9 1   
    10    8   11 1   
    11    8   16 1   
    12    9   10 2   
    13    9   19 1   
    14   11   12 1   
    15   11   17 1   
    16   11   18 1   
    17   12   13 1   
    18   12   14 1   
    19   19   20 1   
    20   19   28 1   
    21   20   21 1   
    22   20   23 1   
    23   20   29 1   
    24   21   22 2   
    25   21   41 1   
    26   23   24 1   
    27   23   30 1   
    28   23   31 1   
    29   24   25 1   
    30   24   32 1   
    31   24   33 1   
    32   25   26 1   
    33   25   34 1   
    34   25   35 1   
    35   26   27 1   
    36   26   36 1   
    37   26   37 1   
    38   27   38 1   
    39   27   39 1   
    40   27   40 1   
    41   41   42 1   
    42   41   49 1   
    43   42   43 1   
    44   42   45 1   
    45   42   50 1   
    46   43   44 2   
    47   43   53 1   
    48   45   46 1   
    49   45   51 1   
    50   45   52 1   
    51   46   47 1   
    52   46   48 1   
    53   53   54 1   
    54   53   57 1   
    55   54   55 1   
    56   54   58 1   
    57   54   59 1   
    58   55   56 2   
    59   55   60 1   
    60   60   61 1   
    61   60   68 1   
    62   61   62 1   
    63   61   64 1   
    64   61   69 1   
    65   62   63 2   
    66   62   74 1   
    67   64   65 1   
    68   64   70 1   
    69   64   71 1   
    70   65   66 1   
    71   65   67 2   
    72   66   72 1   
    73   66   73 1   
    74   74   75 1   
    75   74   78 1   
    76   75   76 1   
    77   75   79 1   
    78   75   80 1   
    79   76   77 2   
    80   76   81 1   
    81   81   82 1   
    82   81   93 1   
    83   82   83 1   
    84   82   85 1   
    85   82   94 1   
    86   83   84 2   
    87   83  102 1   
    88   85   86 1   
    89   85   95 1   
    90   85   96 1   
    91   86   87 ar  
    92   86   88 ar  
    93   87   89 ar  
    94   87   97 1   
    95   88   90 ar  
    96   88   98 1   
    97   89   91 ar  
    98   89   99 1   
    99   90   91 ar  
   100   90  100 1   
   101   91   92 1   
   102   92  101 1   
   103  102  103 1   
   104  102  110 1   
   105  103  104 1   
   106  103  106 1   
   107  103  111 1   
   108  104  105 2   
   109  104  121 1   
   110  106  107 1   
   111  106  108 1   
   112  106  112 1   
   113  107  109 1   
   114  107  113 1   
   115  107  114 1   
   116  108  115 1   
   117  108  116 1   
   118  108  117 1   
   119  109  118 1   
   120  109  119 1   
   121  109  120 1   
   122  121  122 1   
   123  121  127 1   
   124  122  123 1   
   125  122  125 1   
   126  122  128 1   
   127  123  124 2   
   128  123  132 1   
   129  125  126 1   
   130  125  129 1   
   131  125  130 1   
   132  126  131 1   
   133  132  133 1   
   134  132  137 1   
   135  133  134 1   
   136  133  136 1   
   137  133  138 1   
   138  134  135 2   
   139  134  142 1   
   140  136  139 1   
   141  136  140 1   
   142  136  141 1   
   143  142  143 1   
   144  142  147 1   
   145  143  144 1   
   146  143  146 1   
   147  143  148 1   
   148  144  145 2   
   149  144  152 1   
   150  146  149 1   
   151  146  150 1   
   152  146  151 1   
   153  152  153 1   
   154  152  161 1   
   155  153  154 1   
   156  153  156 1   
   157  153  162 1   
   158  154  155 2   
   159  154  167 1   
   160  156  157 1   
   161  156  163 1   
   162  156  164 1   
   163  157  158 1   
   164  157  165 1   
   165  157  166 1   
   166  158  159 1   
   167  158  160 1   
   168  167  168 1   
   169  167  172 1   
   170  168  169 1   
   171  168  170 1   
   172  168  171 1   
   173  174  175 1   
   174  174  176 1   
   175  177  178 1   
   176  177  179 1   
   177  180  181 1   
   178  180  182 1   
@<TRIPOS>SUBSTRUCTURE
     1 MOL         1 TEMP              0 ****  ****    0 ROOT
