@<TRIPOS>MOLECULE
MOL
  189   185     1     0     0
SMALL
resp


@<TRIPOS>ATOM
      1 C1         -0.1840    3.2960    5.0980 c3        1 MOL     -0.372746
      2 C2         -0.6440    2.6560    3.7940 c         1 MOL      0.498701
      3 O1          0.2580    2.5780    2.9640 o         1 MOL     -0.468280
      4 H1         -1.0540    3.6220    5.6680 hc        1 MOL      0.095375
      5 H2          0.3810    2.5690    5.6810 hc        1 MOL      0.095375
      6 H3          0.4480    4.1570    4.8780 hc        1 MOL      0.095375
      7 N1         -1.9360    2.4130    3.6040 n         1 MOL     -0.466509
      8 C3         -2.5430    2.0340    2.3230 c3        1 MOL      0.077768
      9 C4         -2.8910    3.2910    1.5200 c         1 MOL      0.328507
     10 O2         -3.9300    3.9310    1.7860 o         1 MOL     -0.539800
     11 C5         -3.8300    1.1900    2.4370 c3        1 MOL     -0.248643
     12 C6         -4.3200    0.6710    1.0230 c         1 MOL      0.817000
     13 O3         -5.2440   -0.1400    0.9990 o         1 MOL     -0.673457
     14 O4         -3.7500    1.0450   -0.0660 o         1 MOL     -0.673457
     15 H4         -2.5060    2.3690    4.4380 hn        1 MOL      0.332426
     16 H5         -1.7960    1.4300    1.8190 h1        1 MOL     -0.016209
     17 H6         -4.6840    1.7160    2.8640 hc        1 MOL      0.072530
     18 H7         -3.5730    0.3100    3.0370 hc        1 MOL      0.072530
     19 N2         -2.1300    3.5600    0.4610 n         1 MOL     -0.014095
     20 C7         -2.2090    4.7430   -0.3430 c3        1 MOL     -0.073731
     21 C8         -3.1020    4.6590   -1.5560 c         1 MOL      0.551823
     22 O5         -3.2210    5.6180   -2.3140 o         1 MOL     -0.570090
     23 C9         -0.7850    5.2150   -0.7130 c3        1 MOL     -0.040483
     24 C10         0.3040    5.1730    0.3610 c3        1 MOL      0.224250
     25 C11        -0.1400    5.7890    1.6850 c3        1 MOL     -0.379541
     26 C12         0.1090    7.3530    1.7870 c3        1 MOL      0.089954
     27 N3         -0.6770    7.9460    2.8670 n4        1 MOL     -0.326095
     28 H8         -1.4140    2.8910    0.2040 hn        1 MOL      0.176784
     29 H9         -2.6490    5.5470    0.2490 h1        1 MOL      0.034490
     30 H10        -0.8310    6.2070   -1.1560 hc        1 MOL      0.013674
     31 H11        -0.5110    4.5150   -1.5060 hc        1 MOL      0.013674
     32 H12         1.2050    5.6220   -0.0480 hc        1 MOL      0.008318
     33 H13         0.5080    4.1100    0.5300 hc        1 MOL      0.008318
     34 H14         0.5050    5.2370    2.3680 hc        1 MOL      0.129990
     35 H15        -1.1640    5.5070    1.9340 hc        1 MOL      0.129990
     36 H16        -0.2110    7.8300    0.8620 hx        1 MOL      0.073992
     37 H17         1.1830    7.5220    1.9070 hx        1 MOL      0.073992
     38 H18        -0.4810    8.9170    3.0670 hn        1 MOL      0.317686
     39 H19        -1.6620    7.9280    2.6740 hn        1 MOL      0.317686
     40 H20        -0.5390    7.3300    3.6570 hn        1 MOL      0.317686
     41 N4         -3.7870    3.5310   -1.7540 n         1 MOL     -0.273256
     42 C13        -4.7850    3.2990   -2.8370 c3        1 MOL     -0.148236
     43 C14        -5.9440    2.2910   -2.6140 c         1 MOL      0.536744
     44 O6         -6.7990    2.0200   -3.4600 o         1 MOL     -0.507641
     45 C15        -3.9340    2.9000   -4.1150 c3        1 MOL     -0.188011
     46 C16        -3.0140    1.7370   -3.8530 c         1 MOL      0.900786
     47 O7         -3.2020    0.8560   -2.9890 o         1 MOL     -0.711583
     48 O8         -2.1760    1.5390   -4.7870 o         1 MOL     -0.711583
     49 H21        -3.6050    2.7260   -1.1650 hn        1 MOL      0.044804
     50 H22        -5.2930    4.2190   -3.1050 h1        1 MOL      0.138305
     51 H23        -3.2250    3.7020   -4.3390 hc        1 MOL      0.060767
     52 H24        -4.6020    2.6330   -4.9370 hc        1 MOL      0.060767
     53 N5         -6.1780    1.8650   -1.3610 n         1 MOL     -0.368358
     54 C17        -7.4610    1.3180   -0.8620 c3        1 MOL     -0.203432
     55 C18        -7.7740   -0.0390   -1.3930 c         1 MOL      0.494626
     56 O9         -8.9290   -0.5170   -1.5120 o         1 MOL     -0.569633
     57 H25        -5.4350    1.9470   -0.6810 hn        1 MOL      0.312272
     58 H26        -8.3190    1.9580   -1.0680 h1        1 MOL      0.125546
     59 H27        -7.3340    1.2430    0.2170 h1        1 MOL      0.125546
     60 N6         -6.7360   -0.8600   -1.6630 n         1 MOL     -0.207379
     61 C19        -6.8540   -2.3210   -2.0060 c3        1 MOL      0.063138
     62 C20        -6.9400   -3.2080   -0.7540 c         1 MOL      0.381088
     63 O10        -7.5720   -4.2100   -0.8570 o         1 MOL     -0.561467
     64 C21        -5.7100   -2.8970   -2.9120 c3        1 MOL     -0.321563
     65 C22        -4.2960   -2.6030   -2.3280 c         1 MOL      0.782603
     66 O11        -3.9160   -2.8760   -1.1570 o         1 MOL     -0.707281
     67 O12        -3.4410   -2.0960   -3.0590 o         1 MOL     -0.707281
     68 H28        -5.8120   -0.4740   -1.5610 hn        1 MOL      0.145369
     69 H29        -7.7530   -2.5120   -2.5810 h1        1 MOL      0.110097
     70 H30        -5.8450   -2.4320   -3.8900 hc        1 MOL      0.097295
     71 H31        -5.7810   -3.9750   -2.9920 hc        1 MOL      0.097295
     72 N7         -6.4740   -2.8850    0.4210 n         1 MOL     -0.048120
     73 C23        -6.6390   -3.7300    1.5670 c3        1 MOL     -0.185569
     74 C24        -5.2880   -4.2410    2.1720 c         1 MOL      0.487371
     75 O13        -5.3400   -4.9360    3.1820 o         1 MOL     -0.565110
     76 H32        -5.8900   -2.0560    0.3940 hn        1 MOL      0.114119
     77 H33        -7.2040   -4.6210    1.3040 h1        1 MOL      0.107404
     78 H34        -7.1390   -3.0860    2.2870 h1        1 MOL      0.107404
     79 N8         -4.1650   -3.8290    1.5600 n         1 MOL     -0.091655
     80 C25        -2.7130   -4.1750    1.9100 c3        1 MOL     -0.304249
     81 C26        -1.6740   -3.0110    1.7380 c         1 MOL      0.725870
     82 O14        -1.9250   -1.9750    1.1680 o         1 MOL     -0.626568
     83 C27        -2.1570   -5.3090    1.0390 c3        1 MOL      0.440142
     84 C28        -2.7670   -6.6970    1.3100 c3        1 MOL     -0.543177
     85 O15        -2.1570   -4.9410   -0.2810 oh        1 MOL     -0.593986
     86 H35        -4.2810   -3.2810    0.7190 hn        1 MOL      0.060030
     87 H36        -2.7180   -4.6760    2.8720 h1        1 MOL      0.117554
     88 H37        -1.0820   -5.3850    1.2250 h1        1 MOL      0.023967
     89 H38        -3.0690   -4.6960   -0.4690 ho        1 MOL      0.388761
     90 H39        -3.8430   -6.5980    1.1840 hc        1 MOL      0.145724
     91 H40        -2.4820   -7.4020    0.5260 hc        1 MOL      0.145724
     92 H41        -2.6190   -6.9860    2.3430 hc        1 MOL      0.145724
     93 N9         -0.5400   -3.2440    2.3890 n         1 MOL     -0.627451
     94 C29         0.6610   -2.3750    2.3800 c3        1 MOL      0.147745
     95 C30         1.8970   -3.0880    1.8500 c         1 MOL      0.488299
     96 O16         2.0350   -4.3080    2.0160 o         1 MOL     -0.538908
     97 C31         0.8120   -1.8190    3.7770 c3        1 MOL      0.151697
     98 C32        -0.4410   -1.0010    4.3590 c3        1 MOL      0.106938
     99 C33         2.0600   -0.9620    3.8670 c3        1 MOL     -0.402474
    100 C34        -0.5300   -0.9400    5.8830 c3        1 MOL     -0.270871
    101 H42        -0.4490   -4.1270    2.8720 hn        1 MOL      0.294425
    102 H43         0.4050   -1.5690    1.6940 h1        1 MOL      0.046837
    103 H44         0.9420   -2.7110    4.3930 hc        1 MOL     -0.002375
    104 H45        -1.3480   -1.4610    3.9770 hc        1 MOL      0.026252
    105 H46        -0.3470    0.0100    3.9560 hc        1 MOL      0.026252
    106 H47         2.9620   -1.5260    3.6300 hc        1 MOL      0.085611
    107 H48         1.8730   -0.2060    3.1070 hc        1 MOL      0.085611
    108 H49         2.1330   -0.5180    4.8550 hc        1 MOL      0.085611
    109 H50        -1.4170   -0.3420    6.0860 hc        1 MOL      0.061426
    110 H51        -0.6240   -1.9120    6.3660 hc        1 MOL      0.061426
    111 H52         0.3340   -0.4830    6.3500 hc        1 MOL      0.061426
    112 N10         2.7090   -2.2690    1.1970 n         1 MOL     -0.275269
    113 C35         3.8920   -2.6500    0.4880 c3        1 MOL      0.165240
    114 C36         5.1660   -1.9210    0.9340 c         1 MOL      0.320062
    115 O17         5.0720   -1.0260    1.7080 o         1 MOL     -0.337348
    116 C37         3.7990   -2.5950   -1.0390 c3        1 MOL      0.058932
    117 C38         2.4040   -2.9910   -1.5600 c3        1 MOL     -0.497269
    118 O18         3.9240   -1.2900   -1.5090 oh        1 MOL     -0.472968
    119 H53         2.4990   -1.2840    1.1560 hn        1 MOL      0.268954
    120 H54         4.0870   -3.6890    0.7390 h1        1 MOL      0.037746
    121 H55         4.5980   -3.2040   -1.4680 h1        1 MOL      0.036456
    122 H56         3.3400   -1.2330   -2.2700 ho        1 MOL      0.402405
    123 H57         2.2750   -4.0370   -1.2960 hc        1 MOL      0.150231
    124 H58         1.6330   -2.2990   -1.2240 hc        1 MOL      0.150231
    125 H59         2.3410   -2.9670   -2.6470 hc        1 MOL      0.150231
    126 N11         6.3450   -2.3380    0.5480 n         1 MOL     -0.343338
    127 C39         7.6210   -1.7010    0.9310 c3        1 MOL      0.000426
    128 C40         7.6560   -0.2600    0.3960 c         1 MOL      0.149247
    129 O19         8.2350    0.6500    1.0960 o         1 MOL     -0.459581
    130 C41         8.8480   -2.4300    0.3460 c3        1 MOL      0.245312
    131 C42         9.2890   -3.7010    1.1350 c3        1 MOL     -0.508229
    132 O20         8.6470   -2.7130   -1.0310 oh        1 MOL     -0.591215
    133 H60         6.4680   -3.0760   -0.1310 hn        1 MOL      0.246276
    134 H61         7.7140   -1.6890    2.0140 h1        1 MOL      0.140752
    135 H62         9.7080   -1.7620    0.4280 h1        1 MOL      0.053311
    136 H63         9.4240   -3.1400   -1.4080 ho        1 MOL      0.392423
    137 H64         9.4110   -3.4230    2.1850 hc        1 MOL      0.149224
    138 H65         8.5210   -4.4560    0.9660 hc        1 MOL      0.149224
    139 H66        10.1810   -4.1130    0.6750 hc        1 MOL      0.149224
    140 N12         7.0780   -0.1160   -0.8270 n         1 MOL      0.069739
    141 C43         6.8980    1.0990   -1.6210 c3        1 MOL     -0.011985
    142 C44         5.9860    2.1140   -0.9340 c         1 MOL      0.368258
    143 O21         6.4330    3.2270   -0.7970 o         1 MOL     -0.466474
    144 C45         6.3640    0.8250   -3.0030 c3        1 MOL     -0.106463
    145 C46         7.0470   -0.2750   -3.7870 c3        1 MOL      0.193525
    146 C47         8.5980   -0.3250   -3.7600 c3        1 MOL      0.044544
    147 C48         9.0750   -1.4120   -4.7090 c3        1 MOL      0.025381
    148 N13        10.5020   -1.2930   -5.0500 n4        1 MOL     -0.198372
    149 H67         6.6130   -0.9580   -1.1370 hn        1 MOL      0.192975
    150 H68         7.8440    1.6370   -1.7690 h1        1 MOL      0.041752
    151 H69         6.3120    1.7550   -3.5650 hc        1 MOL      0.047319
    152 H70         5.3490    0.4440   -2.9230 hc        1 MOL      0.047319
    153 H71         6.7350   -0.3490   -4.8270 hc        1 MOL     -0.064481
    154 H72         6.7340   -1.1250   -3.1880 hc        1 MOL     -0.064481
    155 H73         9.0440   -0.4690   -2.7740 hc        1 MOL     -0.016517
    156 H74         9.0240    0.6180   -4.1180 hc        1 MOL     -0.016517
    157 H75         8.5790   -1.4250   -5.6830 hx        1 MOL      0.061053
    158 H76         8.8660   -2.3570   -4.2160 hx        1 MOL      0.061053
    159 H77        11.0250   -1.3120   -4.1830 hn        1 MOL      0.246795
    160 H78        10.8530   -2.0090   -5.6630 hn        1 MOL      0.246795
    161 H79        10.7930   -0.4340   -5.5010 hn        1 MOL      0.246795
    162 N14         4.8190    1.5950   -0.5710 n         1 MOL     -0.110240
    163 C49         3.8720    2.4500    0.0860 c3        1 MOL     -0.242532
    164 C50         4.4670    2.7950    1.5010 c         1 MOL      0.426274
    165 O22         4.3520    3.9550    1.8590 o         1 MOL     -0.537904
    166 C51         2.5330    1.7580    0.3420 c3        1 MOL      0.109160
    167 C52         1.7440    1.7290   -0.9550 c3        1 MOL      0.103007
    168 C53         0.3740    1.0410   -0.8800 c         1 MOL      0.664640
    169 O23         0.3380   -0.1610   -0.4970 o         1 MOL     -0.695529
    170 O24        -0.6930    1.6420   -1.1120 o         1 MOL     -0.695529
    171 H80         4.5370    0.6540   -0.8020 hn        1 MOL      0.129000
    172 H81         3.7600    3.3920   -0.4450 h1        1 MOL      0.144329
    173 H82         2.0200    2.3490    1.1060 hc        1 MOL     -0.042802
    174 H83         2.7820    0.7400    0.6210 hc        1 MOL     -0.042802
    175 H84         2.3450    1.1390   -1.6490 hc        1 MOL     -0.067087
    176 H85         1.5980    2.7610   -1.2450 hc        1 MOL     -0.067087
    177 N15         5.0500    1.8710    2.3280 n         1 MOL     -0.035006
    178 C54         5.7060    2.1950    3.6140 c3        1 MOL     -0.273756
    179 H86         6.4110    1.4050    3.8720 h1        1 MOL      0.111345
    180 H87         6.2410    3.1410    3.5220 h1        1 MOL      0.111345
    181 H88         4.9520    2.2780    4.3960 h1        1 MOL      0.111345
    182 H89         4.9910    0.9150    1.9960 hn        1 MOL      0.071239
    183 Ca1        -2.1740   -0.6910   -1.1970 Ca        1 MOL      1.740694
    184 O25        -0.8150   -3.0330   -1.4800 oh        1 MOL     -0.838275
    185 H90         0.0010   -3.3910   -1.8310 ho        1 MOL      0.387951
    186 H91        -1.2890   -3.7930   -1.1650 ho        1 MOL      0.387951
    187 O26        -0.9070   -0.6170   -3.4890 oh        1 MOL     -0.838275
    188 H92        -1.2300    0.1280   -3.9880 ho        1 MOL      0.387951
    189 H93        -0.9900   -1.3600   -4.0990 ho        1 MOL      0.387951
@<TRIPOS>BOND
     1    1    2 1   
     2    1    4 1   
     3    1    5 1   
     4    1    6 1   
     5    2    3 2   
     6    2    7 1   
     7    7    8 1   
     8    7   15 1   
     9    8    9 1   
    10    8   11 1   
    11    8   16 1   
    12    9   10 2   
    13    9   19 1   
    14   11   12 1   
    15   11   17 1   
    16   11   18 1   
    17   12   13 1   
    18   12   14 1   
    19   19   20 1   
    20   19   28 1   
    21   20   21 1   
    22   20   23 1   
    23   20   29 1   
    24   21   22 2   
    25   21   41 1   
    26   23   24 1   
    27   23   30 1   
    28   23   31 1   
    29   24   25 1   
    30   24   32 1   
    31   24   33 1   
    32   25   26 1   
    33   25   34 1   
    34   25   35 1   
    35   26   27 1   
    36   26   36 1   
    37   26   37 1   
    38   27   38 1   
    39   27   39 1   
    40   27   40 1   
    41   41   42 1   
    42   41   49 1   
    43   42   43 1   
    44   42   45 1   
    45   42   50 1   
    46   43   44 2   
    47   43   53 1   
    48   45   46 1   
    49   45   51 1   
    50   45   52 1   
    51   46   47 1   
    52   46   48 1   
    53   53   54 1   
    54   53   57 1   
    55   54   55 1   
    56   54   58 1   
    57   54   59 1   
    58   55   56 2   
    59   55   60 1   
    60   60   61 1   
    61   60   68 1   
    62   61   62 1   
    63   61   64 1   
    64   61   69 1   
    65   62   63 2   
    66   62   72 1   
    67   64   65 1   
    68   64   70 1   
    69   64   71 1   
    70   65   66 1   
    71   65   67 1   
    72   72   73 1   
    73   72   76 1   
    74   73   74 1   
    75   73   77 1   
    76   73   78 1   
    77   74   75 2   
    78   74   79 1   
    79   79   80 1   
    80   79   86 1   
    81   80   81 1   
    82   80   83 1   
    83   80   87 1   
    84   81   82 2   
    85   81   93 1   
    86   83   84 1   
    87   83   85 1   
    88   83   88 1   
    89   84   90 1   
    90   84   91 1   
    91   84   92 1   
    92   85   89 1   
    93   93   94 1   
    94   93  101 1   
    95   94   95 1   
    96   94   97 1   
    97   94  102 1   
    98   95   96 2   
    99   95  112 1   
   100   97   98 1   
   101   97   99 1   
   102   97  103 1   
   103   98  100 1   
   104   98  104 1   
   105   98  105 1   
   106   99  106 1   
   107   99  107 1   
   108   99  108 1   
   109  100  109 1   
   110  100  110 1   
   111  100  111 1   
   112  112  113 1   
   113  112  119 1   
   114  113  114 1   
   115  113  116 1   
   116  113  120 1   
   117  114  115 2   
   118  114  126 1   
   119  116  117 1   
   120  116  118 1   
   121  116  121 1   
   122  117  123 1   
   123  117  124 1   
   124  117  125 1   
   125  118  122 1   
   126  126  127 1   
   127  126  133 1   
   128  127  128 1   
   129  127  130 1   
   130  127  134 1   
   131  128  129 2   
   132  128  140 1   
   133  130  131 1   
   134  130  132 1   
   135  130  135 1   
   136  131  137 1   
   137  131  138 1   
   138  131  139 1   
   139  132  136 1   
   140  140  141 1   
   141  140  149 1   
   142  141  142 1   
   143  141  144 1   
   144  141  150 1   
   145  142  143 2   
   146  142  162 1   
   147  144  145 1   
   148  144  151 1   
   149  144  152 1   
   150  145  146 1   
   151  145  153 1   
   152  145  154 1   
   153  146  147 1   
   154  146  155 1   
   155  146  156 1   
   156  147  148 1   
   157  147  157 1   
   158  147  158 1   
   159  148  159 1   
   160  148  160 1   
   161  148  161 1   
   162  162  163 1   
   163  162  171 1   
   164  163  164 1   
   165  163  166 1   
   166  163  172 1   
   167  164  165 2   
   168  164  177 1   
   169  166  167 1   
   170  166  173 1   
   171  166  174 1   
   172  167  168 1   
   173  167  175 1   
   174  167  176 1   
   175  168  169 1   
   176  168  170 1   
   177  177  178 1   
   178  177  182 1   
   179  178  179 1   
   180  178  180 1   
   181  178  181 1   
   182  184  185 1   
   183  184  186 1   
   184  187  188 1   
   185  187  189 1   
@<TRIPOS>SUBSTRUCTURE
     1 MOL         1 TEMP              0 ****  ****    0 ROOT
