@<TRIPOS>MOLECULE
MOL
  189   185     1     0     0
SMALL
resp


@<TRIPOS>ATOM
      1 C1          0.0540   -4.2720    5.6920 c3        1 MOL     -0.372360
      2 C2          0.6960   -3.7500    4.3850 c         1 MOL      0.754120
      3 O1          1.0350   -2.5590    4.3350 o         1 MOL     -0.637586
      4 H1          0.4430   -3.7050    6.5390 hc        1 MOL      0.097013
      5 H2         -1.0280   -4.1500    5.6400 hc        1 MOL      0.097013
      6 H3          0.2960   -5.3270    5.8200 hc        1 MOL      0.097013
      7 N1          1.0520   -4.5700    3.3860 n         1 MOL     -0.693872
      8 C3          1.7010   -4.1690    2.1240 c3        1 MOL      0.249305
      9 C4          1.2780   -5.0680    1.0080 c         1 MOL      0.505640
     10 O2          1.2250   -6.2680    1.1830 o         1 MOL     -0.588789
     11 C5          3.1780   -4.0980    2.4840 c3        1 MOL     -0.021341
     12 C6          3.9810   -3.6500    1.1820 c         1 MOL      0.490940
     13 O3          5.0360   -4.2200    0.9060 o         1 MOL     -0.607466
     14 O4          3.5390   -2.6590    0.5360 o         1 MOL     -0.607466
     15 H4          1.0110   -5.5650    3.5750 hn        1 MOL      0.319808
     16 H5          1.3240   -3.1530    1.9460 h1        1 MOL      0.093032
     17 H6          3.6200   -4.9930    2.9230 hc        1 MOL      0.000179
     18 H7          3.3470   -3.3400    3.2450 hc        1 MOL      0.000179
     19 N2          1.1580   -4.5130   -0.2470 n         1 MOL     -0.193114
     20 C7          0.7750   -5.2900   -1.3990 c3        1 MOL     -0.161039
     21 C8          1.8320   -5.0240   -2.5810 c         1 MOL      0.553604
     22 O5          1.9820   -5.8100   -3.4720 o         1 MOL     -0.562111
     23 C9         -0.7530   -5.1130   -1.6160 c3        1 MOL      0.223836
     24 C10        -1.7200   -5.3080   -0.4090 c3        1 MOL     -0.063743
     25 C11        -1.1850   -6.2400   -2.5920 c3        1 MOL     -0.271337
     26 C12        -3.1170   -4.7760   -0.7200 c3        1 MOL     -0.240213
     27 H8          1.4210   -3.5440   -0.2630 hn        1 MOL      0.032633
     28 H9          0.8780   -6.3330   -1.1020 h1        1 MOL      0.100970
     29 H10        -0.9420   -4.1490   -2.0780 hc        1 MOL      0.007992
     30 H11        -1.3390   -4.8380    0.5010 hc        1 MOL      0.020354
     31 H12        -1.7460   -6.3860   -0.2360 hc        1 MOL      0.020354
     32 H13        -2.2470   -6.2460   -2.8250 hc        1 MOL      0.050116
     33 H14        -0.5930   -6.0660   -3.4900 hc        1 MOL      0.050116
     34 H15        -0.9340   -7.2100   -2.1700 hc        1 MOL      0.050116
     35 H16        -2.9800   -3.8610   -1.3170 hc        1 MOL      0.085261
     36 H17        -3.7150   -5.5740   -1.1590 hc        1 MOL      0.085261
     37 H18        -3.5740   -4.6060    0.2500 hc        1 MOL      0.085261
     38 N3          2.6010   -3.9250   -2.4980 n         1 MOL     -0.231182
     39 C13         3.5270   -3.5130   -3.5360 c3        1 MOL      0.016334
     40 C14         4.9650   -3.2460   -3.1570 c         1 MOL      0.365720
     41 O6          5.8210   -3.2280   -4.1030 o         1 MOL     -0.565506
     42 C15         2.9640   -2.3790   -4.3060 c3        1 MOL     -0.105135
     43 C16         2.6250   -1.1890   -3.5340 c         1 MOL      0.732529
     44 O7          2.8100   -1.0260   -2.2820 o         1 MOL     -0.714715
     45 O8          1.8370   -0.3630   -3.9630 o         1 MOL     -0.714715
     46 H19         2.5530   -3.2110   -1.7840 hn        1 MOL      0.175495
     47 H20         3.6000   -4.3430   -4.2420 h1        1 MOL      0.078449
     48 H21         2.0600   -2.6930   -4.8390 hc        1 MOL      0.036003
     49 H22         3.5670   -2.0620   -5.1560 hc        1 MOL      0.036003
     50 N4          5.3390   -2.9660   -1.8820 n         1 MOL     -0.065011
     51 C17         6.6720   -2.6850   -1.3760 c3        1 MOL     -0.251554
     52 C18         7.0310   -1.1800   -1.4620 c         1 MOL      0.481643
     53 O9          8.2530   -0.8640   -1.3600 o         1 MOL     -0.597791
     54 H23         4.6530   -3.3000   -1.2200 hn        1 MOL      0.099313
     55 H24         7.4080   -3.2990   -1.9010 h1        1 MOL      0.125708
     56 H25         6.6930   -2.9210   -0.3100 h1        1 MOL      0.125708
     57 N5          6.0960   -0.2980   -1.8190 n         1 MOL     -0.226519
     58 C19         6.4880    1.0560   -2.1360 c3        1 MOL      0.126583
     59 C20         7.0170    1.9110   -0.9430 c         1 MOL      0.346957
     60 O10         7.6860    2.9000   -1.0560 o         1 MOL     -0.554620
     61 C21         5.2800    1.6610   -2.9030 c3        1 MOL     -0.334603
     62 C22         4.1140    2.0810   -2.0250 c         1 MOL      0.848435
     63 O11         3.9300    1.5780   -0.8940 o         1 MOL     -0.706789
     64 O12         3.2720    2.8720   -2.5700 o         1 MOL     -0.706789
     65 H26         5.3450   -0.7300   -2.3400 hn        1 MOL      0.206719
     66 H27         7.3090    0.9720   -2.8440 h1        1 MOL      0.051103
     67 H28         4.9130    0.9100   -3.6040 hc        1 MOL      0.070826
     68 H29         5.5360    2.6270   -3.3290 hc        1 MOL      0.070826
     69 N6          6.6840    1.4930    0.2560 n         1 MOL      0.010236
     70 C23         7.1110    2.1880    1.4890 c3        1 MOL     -0.325546
     71 C24         6.1470    3.3390    1.8200 c         1 MOL      0.658160
     72 O13         6.5080    4.0800    2.7310 o         1 MOL     -0.601902
     73 H30         6.1450    0.6450    0.2660 hn        1 MOL      0.096542
     74 H31         8.1050    2.5700    1.2470 h1        1 MOL      0.116532
     75 H32         7.0700    1.4220    2.2570 h1        1 MOL      0.116532
     76 N7          4.9870    3.4160    1.1110 n         1 MOL     -0.379367
     77 C25         3.8000    4.1940    1.5930 c3        1 MOL      0.134842
     78 C26         2.5670    3.2880    1.8440 c         1 MOL      0.351137
     79 O14         2.6660    2.0810    1.5190 o         1 MOL     -0.465020
     80 C27         3.3920    5.3750    0.6800 c3        1 MOL     -0.189223
     81 C28         4.6230    6.1770    0.2150 c3        1 MOL      0.062611
     82 C29         4.2630    7.2890   -0.7010 c         1 MOL      0.604976
     83 N8          5.2390    8.0630   -1.1360 n         1 MOL     -0.750527
     84 O15         3.1460    7.4720   -1.2070 o         1 MOL     -0.551120
     85 H33         4.7910    2.7520    0.3830 hn        1 MOL      0.254761
     86 H34         4.0440    4.5150    2.6080 h1        1 MOL      0.010427
     87 H35         2.6790    6.0210    1.1910 hc        1 MOL      0.054306
     88 H36         2.9180    4.8870   -0.1740 hc        1 MOL      0.054306
     89 H37         5.3870    5.5030   -0.1470 hc        1 MOL     -0.001955
     90 H38         5.0010    6.6480    1.1160 hc        1 MOL     -0.001955
     91 H39         6.1460    8.0700   -0.6990 hn        1 MOL      0.328705
     92 H40         5.0040    8.7910   -1.7960 hn        1 MOL      0.328705
     93 N9          1.3650    3.7270    2.2930 n         1 MOL     -0.353764
     94 C30         0.1610    2.9200    2.4640 c3        1 MOL     -0.005085
     95 C31        -0.9500    3.3330    1.4730 c         1 MOL      0.504570
     96 O16        -1.5010    4.4020    1.5750 o         1 MOL     -0.581086
     97 C32        -0.3990    2.9480    3.9390 c3        1 MOL      0.314929
     98 C33        -1.5080    1.9940    4.2510 c3        1 MOL     -0.206682
     99 C34         0.7060    2.7990    4.9790 c3        1 MOL     -0.206682
    100 H41         1.3900    4.6690    2.6480 hn        1 MOL      0.270468
    101 H42         0.3380    1.8540    2.3160 h1        1 MOL      0.048996
    102 H43        -0.7050    3.9740    4.1410 hc        1 MOL     -0.059083
    103 H44        -2.1910    2.0360    3.3960 hc        1 MOL      0.030464
    104 H45        -0.9660    1.0550    4.3800 hc        1 MOL      0.030464
    105 H46        -1.9720    2.2230    5.2100 hc        1 MOL      0.030464
    106 H47         1.3920    3.6460    4.9150 hc        1 MOL      0.030464
    107 H48         0.3050    2.9380    5.9810 hc        1 MOL      0.030464
    108 H49         1.2100    1.8370    4.9690 hc        1 MOL      0.030464
    109 N10        -1.4100    2.4320    0.6100 n         1 MOL     -0.276250
    110 C35        -2.6080    2.5350   -0.1460 c3        1 MOL      0.053866
    111 C36        -3.8330    2.2740    0.6330 c         1 MOL      0.125119
    112 O17        -3.8370    1.8950    1.7820 o         1 MOL     -0.265132
    113 C37        -2.4480    1.5620   -1.3080 c3        1 MOL     -0.293686
    114 C38        -3.5970    1.6180   -2.3170 c         1 MOL      0.619986
    115 N11        -3.7920    2.7150   -2.9480 n         1 MOL     -0.635317
    116 O18        -4.3940    0.6810   -2.4840 o         1 MOL     -0.567304
    117 H50        -1.0540    1.4910    0.7100 hn        1 MOL      0.194588
    118 H51        -2.7470    3.5430   -0.5540 h1        1 MOL      0.092635
    119 H52        -2.4200    0.5780   -0.8430 hc        1 MOL      0.129885
    120 H53        -1.5410    1.7250   -1.8810 hc        1 MOL      0.129885
    121 H54        -3.1690    3.4980   -2.8870 hn        1 MOL      0.308821
    122 H55        -4.5100    2.8600   -3.6410 hn        1 MOL      0.308821
    123 N12        -4.9540    2.6970    0.0990 n         1 MOL     -0.086878
    124 C39        -6.3180    2.4680    0.6820 c3        1 MOL      0.117627
    125 C40        -6.5920    0.9610    0.7010 c         1 MOL      0.415656
    126 O19        -7.1220    0.5070    1.7210 o         1 MOL     -0.544676
    127 C41        -7.3520    3.2830   -0.0650 c3        1 MOL     -0.294699
    128 C42        -7.1280    3.2930   -1.5720 ca        1 MOL      0.128767
    129 C43        -6.7390    4.5060   -2.1920 ca        1 MOL     -0.163967
    130 C44        -7.4160    2.2050   -2.3960 ca        1 MOL     -0.163967
    131 C45        -6.6960    4.6040   -3.6120 ca        1 MOL     -0.320479
    132 C46        -7.2600    2.2150   -3.8300 ca        1 MOL     -0.320479
    133 C47        -6.9990    3.4740   -4.4480 ca        1 MOL      0.452283
    134 O20        -6.9290    3.5040   -5.7900 oh        1 MOL     -0.616575
    135 H56        -5.0530    3.2150   -0.7570 hn        1 MOL      0.091950
    136 H57        -6.3850    2.7980    1.7170 h1        1 MOL      0.051960
    137 H58        -7.2830    4.3450    0.1670 hc        1 MOL      0.100762
    138 H59        -8.3290    2.8430    0.1420 hc        1 MOL      0.100762
    139 H60        -6.4660    5.3540   -1.5870 ha        1 MOL      0.126410
    140 H61        -7.8260    1.3100   -1.9470 ha        1 MOL      0.126410
    141 H62        -6.3930    5.5190   -4.1210 ha        1 MOL      0.145735
    142 H63        -7.3000    1.3450   -4.4760 ha        1 MOL      0.145735
    143 H64        -7.1050    2.6700   -6.2330 ho        1 MOL      0.445042
    144 N13        -6.2130    0.0620   -0.2420 n         1 MOL     -0.237117
    145 C48        -6.2210   -1.3970   -0.0010 c3        1 MOL     -0.466147
    146 C49        -5.4620   -1.8830    1.2630 c         1 MOL      0.502878
    147 O21        -5.8060   -2.9050    1.9070 o         1 MOL     -0.523778
    148 C50        -5.8060   -2.2580   -1.2440 c3        1 MOL      0.102823
    149 C51        -6.7700   -2.2170   -2.4890 c3        1 MOL     -0.224582
    150 C52        -8.2780   -2.2180   -1.9360 c         1 MOL      0.650322
    151 O22        -9.0750   -1.2850   -2.3170 o         1 MOL     -0.699354
    152 O23        -8.7600   -3.1050   -1.1700 o         1 MOL     -0.699354
    153 H65        -5.8660    0.4120   -1.1280 hn        1 MOL      0.450101
    154 H66        -7.2500   -1.5670    0.3010 h1        1 MOL      0.265298
    155 H67        -5.7510   -3.2930   -0.9100 hc        1 MOL      0.002856
    156 H68        -4.7780   -2.0250   -1.4850 hc        1 MOL      0.002856
    157 H69        -6.6310   -3.1180   -3.0870 hc        1 MOL      0.027292
    158 H70        -6.5580   -1.3410   -3.0930 hc        1 MOL      0.027292
    159 N14        -4.4220   -1.1140    1.6930 n         1 MOL     -0.096424
    160 C53        -3.5560   -1.5350    2.8300 c3        1 MOL     -0.097362
    161 C54        -4.1020   -0.9800    4.1320 c         1 MOL      0.541007
    162 O24        -4.1050   -1.6680    5.1530 o         1 MOL     -0.564842
    163 C55        -2.0660   -1.1390    2.5480 c3        1 MOL      0.060631
    164 C56        -1.5350   -1.9670    1.3070 c3        1 MOL     -0.403897
    165 C57        -0.3310   -1.2770    0.7200 c         1 MOL      0.615518
    166 O25         0.4830   -1.8270   -0.0300 o         1 MOL     -0.574193
    167 O26        -0.0150   -0.1200    0.9870 o         1 MOL     -0.574193
    168 H71        -4.0920   -0.2870    1.2060 hn        1 MOL      0.075550
    169 H72        -3.5820   -2.6190    2.9500 h1        1 MOL      0.058876
    170 H73        -1.4180   -1.3790    3.3850 hc        1 MOL      0.038734
    171 H74        -2.0820   -0.0930    2.2470 hc        1 MOL      0.038734
    172 H75        -2.2510   -1.9870    0.4750 hc        1 MOL      0.124484
    173 H76        -1.3560   -2.9740    1.6710 hc        1 MOL      0.124484
    174 N15        -4.4680    0.3340    4.0670 n         1 MOL     -0.142180
    175 C58        -4.9340    1.0590    5.2530 c3        1 MOL     -0.301621
    176 H77        -4.1410    1.0800    6.0000 h1        1 MOL      0.101312
    177 H78        -5.1990    2.0790    4.9760 h1        1 MOL      0.101312
    178 H79        -5.8090    0.5560    5.6660 h1        1 MOL      0.101312
    179 H80        -4.1420    0.8890    3.2890 hn        1 MOL      0.108691
    180 Ca1         2.5890   -0.2210    0.2430 Ca        1 MOL      1.628658
    181 O27         2.5570   -0.6950    2.9430 oh        1 MOL     -0.884517
    182 H81         2.9840   -0.4100    3.7610 ho        1 MOL      0.424941
    183 H82         1.9270   -1.3510    3.2280 ho        1 MOL      0.424941
    184 O28         1.0680    1.2650   -1.6980 oh        1 MOL     -0.884517
    185 H83         1.6090    2.0240   -1.8790 ho        1 MOL      0.424941
    186 H84         1.0690    0.7640   -2.5160 ho        1 MOL      0.424941
    187 O29         5.0930   -0.6780    1.2460 oh        1 MOL     -0.884517
    188 H85         5.4790   -0.6450    2.1150 ho        1 MOL      0.424941
    189 H86         5.0110   -1.6180    1.0550 ho        1 MOL      0.424941
@<TRIPOS>BOND
     1    1    2 1   
     2    1    4 1   
     3    1    5 1   
     4    1    6 1   
     5    2    3 2   
     6    2    7 1   
     7    7    8 1   
     8    7   15 1   
     9    8    9 1   
    10    8   11 1   
    11    8   16 1   
    12    9   10 2   
    13    9   19 1   
    14   11   12 1   
    15   11   17 1   
    16   11   18 1   
    17   12   13 1   
    18   12   14 1   
    19   19   20 1   
    20   19   27 1   
    21   20   21 1   
    22   20   23 1   
    23   20   28 1   
    24   21   22 2   
    25   21   38 1   
    26   23   24 1   
    27   23   25 1   
    28   23   29 1   
    29   24   26 1   
    30   24   30 1   
    31   24   31 1   
    32   25   32 1   
    33   25   33 1   
    34   25   34 1   
    35   26   35 1   
    36   26   36 1   
    37   26   37 1   
    38   38   39 1   
    39   38   46 1   
    40   39   40 1   
    41   39   42 1   
    42   39   47 1   
    43   40   41 2   
    44   40   50 1   
    45   42   43 1   
    46   42   48 1   
    47   42   49 1   
    48   43   44 1   
    49   43   45 1   
    50   50   51 1   
    51   50   54 1   
    52   51   52 1   
    53   51   55 1   
    54   51   56 1   
    55   52   53 2   
    56   52   57 1   
    57   57   58 1   
    58   57   65 1   
    59   58   59 1   
    60   58   61 1   
    61   58   66 1   
    62   59   60 2   
    63   59   69 1   
    64   61   62 1   
    65   61   67 1   
    66   61   68 1   
    67   62   63 1   
    68   62   64 1   
    69   69   70 1   
    70   69   73 1   
    71   70   71 1   
    72   70   74 1   
    73   70   75 1   
    74   71   72 2   
    75   71   76 1   
    76   76   77 1   
    77   76   85 1   
    78   77   78 1   
    79   77   80 1   
    80   77   86 1   
    81   78   79 2   
    82   78   93 1   
    83   80   81 1   
    84   80   87 1   
    85   80   88 1   
    86   81   82 1   
    87   81   89 1   
    88   81   90 1   
    89   82   83 1   
    90   82   84 2   
    91   83   91 1   
    92   83   92 1   
    93   93   94 1   
    94   93  100 1   
    95   94   95 1   
    96   94   97 1   
    97   94  101 1   
    98   95   96 2   
    99   95  109 1   
   100   97   98 1   
   101   97   99 1   
   102   97  102 1   
   103   98  103 1   
   104   98  104 1   
   105   98  105 1   
   106   99  106 1   
   107   99  107 1   
   108   99  108 1   
   109  109  110 1   
   110  109  117 1   
   111  110  111 1   
   112  110  113 1   
   113  110  118 1   
   114  111  112 2   
   115  111  123 1   
   116  113  114 1   
   117  113  119 1   
   118  113  120 1   
   119  114  115 1   
   120  114  116 2   
   121  115  121 1   
   122  115  122 1   
   123  123  124 1   
   124  123  135 1   
   125  124  125 1   
   126  124  127 1   
   127  124  136 1   
   128  125  126 2   
   129  125  144 1   
   130  127  128 1   
   131  127  137 1   
   132  127  138 1   
   133  128  129 ar  
   134  128  130 ar  
   135  129  131 ar  
   136  129  139 1   
   137  130  132 ar  
   138  130  140 1   
   139  131  133 ar  
   140  131  141 1   
   141  132  133 ar  
   142  132  142 1   
   143  133  134 1   
   144  134  143 1   
   145  144  145 1   
   146  144  153 1   
   147  145  146 1   
   148  145  148 1   
   149  145  154 1   
   150  146  147 2   
   151  146  159 1   
   152  148  149 1   
   153  148  155 1   
   154  148  156 1   
   155  149  150 1   
   156  149  157 1   
   157  149  158 1   
   158  150  151 1   
   159  150  152 1   
   160  159  160 1   
   161  159  168 1   
   162  160  161 1   
   163  160  163 1   
   164  160  169 1   
   165  161  162 2   
   166  161  174 1   
   167  163  164 1   
   168  163  170 1   
   169  163  171 1   
   170  164  165 1   
   171  164  172 1   
   172  164  173 1   
   173  165  166 1   
   174  165  167 1   
   175  174  175 1   
   176  174  179 1   
   177  175  176 1   
   178  175  177 1   
   179  175  178 1   
   180  181  182 1   
   181  181  183 1   
   182  184  185 1   
   183  184  186 1   
   184  187  188 1   
   185  187  189 1   
@<TRIPOS>SUBSTRUCTURE
     1 MOL         1 TEMP              0 ****  ****    0 ROOT
