@<TRIPOS>MOLECULE
MOL
  182   178     1     0     0
SMALL
resp


@<TRIPOS>ATOM
      1 C1          2.5440    1.8840    5.8770 c3        1 MOL     -0.353547
      2 C2          1.8790    2.0170    4.4900 c         1 MOL      0.826997
      3 O1          2.5080    2.1690    3.4450 o         1 MOL     -0.668188
      4 H1          1.8140    1.5080    6.5950 hc        1 MOL      0.096069
      5 H2          3.3810    1.1890    5.8140 hc        1 MOL      0.096069
      6 H3          2.9040    2.8600    6.2030 hc        1 MOL      0.096069
      7 N1          0.5330    1.9440    4.3630 n         1 MOL     -0.623903
      8 C3         -0.1430    2.1680    3.0330 c3        1 MOL      0.062665
      9 C4         -0.1630    3.5700    2.4940 c         1 MOL      0.557347
     10 O2         -0.4940    4.5280    3.2510 o         1 MOL     -0.563966
     11 C5         -1.6580    1.6930    3.1530 c3        1 MOL     -0.168300
     12 C6         -2.5390    1.7030    1.9130 c         1 MOL      0.740210
     13 O3         -2.0100    1.8230    0.7670 o         1 MOL     -0.712081
     14 O4         -3.7610    1.6180    1.9630 o         1 MOL     -0.712081
     15 H4         -0.0140    1.6630    5.1550 hn        1 MOL      0.322807
     16 H5          0.3520    1.5100    2.3130 h1        1 MOL      0.059832
     17 H6         -2.0740    2.3870    3.8810 hc        1 MOL      0.044697
     18 H7         -1.7650    0.6970    3.5710 hc        1 MOL      0.044697
     19 N2          0.2580    3.7560    1.2460 n         1 MOL     -0.329091
     20 C7          0.4500    5.0130    0.5690 c3        1 MOL     -0.047668
     21 C8         -0.7700    5.6070   -0.1260 c         1 MOL      0.517127
     22 O5         -0.8600    6.8290   -0.2190 o         1 MOL     -0.576863
     23 C9          1.6350    4.7860   -0.4130 c3        1 MOL     -0.056198
     24 C10         2.9690    4.4110    0.3510 c3        1 MOL      0.003381
     25 C11         4.2230    4.3140   -0.5500 c3        1 MOL     -0.164157
     26 C12         4.8260    5.7260   -0.8510 c3        1 MOL      0.078297
     27 N3          5.7360    5.6860   -1.9470 n4        1 MOL     -0.342583
     28 H8          0.6650    2.9420    0.8120 hn        1 MOL      0.292376
     29 H9          0.9530    5.7390    1.2030 h1        1 MOL      0.079606
     30 H10         1.9050    5.6940   -0.9460 hc        1 MOL      0.022144
     31 H11         1.4030    4.0160   -1.1500 hc        1 MOL      0.022144
     32 H12         2.8540    3.4440    0.8300 hc        1 MOL      0.067870
     33 H13         3.1330    5.1780    1.1090 hc        1 MOL      0.067870
     34 H14         4.0280    3.7670   -1.4720 hc        1 MOL      0.068348
     35 H15         4.9580    3.7200    0.0070 hc        1 MOL      0.068348
     36 H16         5.2690    6.1640    0.0370 hx        1 MOL      0.077809
     37 H17         4.0380    6.4590   -1.0240 hx        1 MOL      0.077809
     38 H18         5.3560    5.5590   -2.8710 hn        1 MOL      0.321788
     39 H19         6.2380    6.5630   -1.9850 hn        1 MOL      0.321788
     40 H20         6.4560    4.9910   -1.8390 hn        1 MOL      0.321788
     41 N4         -1.7730    4.8470   -0.6090 n         1 MOL     -0.400068
     42 C13        -2.8790    5.3000   -1.4200 c3        1 MOL      0.155075
     43 C14        -4.2370    4.8440   -0.9440 c         1 MOL      0.404349
     44 O6         -5.2770    4.9950   -1.6530 o         1 MOL     -0.508843
     45 C15        -2.5750    4.8320   -2.9450 c3        1 MOL     -0.321325
     46 C16        -2.3160    3.3780   -3.0670 c         1 MOL      0.880153
     47 O7         -2.4600    2.7630   -4.1610 o         1 MOL     -0.738359
     48 O8         -1.9570    2.7010   -2.0810 o         1 MOL     -0.738359
     49 H21        -1.6330    3.8450   -0.5710 hn        1 MOL      0.259871
     50 H22        -2.9780    6.3850   -1.4540 h1        1 MOL      0.096226
     51 H23        -1.6300    5.2750   -3.2610 hc        1 MOL      0.073340
     52 H24        -3.4250    5.1650   -3.5440 hc        1 MOL      0.073340
     53 N5         -4.3150    4.3230    0.3150 n         1 MOL     -0.304182
     54 C17        -5.5280    4.1430    1.0920 c3        1 MOL     -0.225923
     55 C18        -6.4030    3.0050    0.5950 c         1 MOL      0.484254
     56 O9         -7.6090    2.8830    0.8450 o         1 MOL     -0.557196
     57 H25        -3.4970    4.1160    0.8590 hn        1 MOL      0.260603
     58 H26        -6.1750    5.0140    0.9630 h1        1 MOL      0.137358
     59 H27        -5.2770    4.0690    2.1540 h1        1 MOL      0.137358
     60 N6         -5.7800    2.0510   -0.1520 n         1 MOL     -0.106198
     61 C19        -6.4800    1.0770   -0.9430 c3        1 MOL     -0.194365
     62 C20        -6.6850   -0.2110   -0.0650 c         1 MOL      0.448226
     63 O10        -7.4220   -1.0760   -0.4540 o         1 MOL     -0.510738
     64 C21        -5.6390    0.8100   -2.1830 c3        1 MOL      0.038337
     65 C22        -4.6560   -0.3260   -2.0110 c         1 MOL      0.549954
     66 N7         -5.0060   -1.3750   -2.7780 n         1 MOL     -0.849810
     67 O11        -3.6870   -0.3890   -1.2590 o         1 MOL     -0.688209
     68 H28        -4.7720    2.0670   -0.2370 hn        1 MOL      0.202444
     69 H29        -7.4410    1.4900   -1.2640 h1        1 MOL      0.145610
     70 H30        -5.1590    1.7420   -2.4650 hc        1 MOL      0.031419
     71 H31        -6.3050    0.5240   -2.9900 hc        1 MOL      0.031419
     72 H32        -5.8800   -1.4110   -3.2840 hn        1 MOL      0.400834
     73 H33        -4.3760   -2.1540   -2.8130 hn        1 MOL      0.400834
     74 N8         -6.0210   -0.2270    1.0940 n         1 MOL     -0.152872
     75 C23        -6.0160   -1.3560    2.0280 c3        1 MOL     -0.246732
     76 C24        -4.9600   -2.4440    1.8620 c         1 MOL      0.737026
     77 O12        -5.1670   -3.4810    2.4180 o         1 MOL     -0.559841
     78 H34        -5.4550    0.5720    1.3650 hn        1 MOL      0.217620
     79 H35        -7.0140   -1.7810    2.1730 h1        1 MOL      0.107529
     80 H36        -5.6550   -0.9170    2.9670 h1        1 MOL      0.107529
     81 N9         -3.8490   -2.2680    1.1080 n         1 MOL     -0.734116
     82 C25        -2.9180   -3.3610    0.7890 c3        1 MOL      0.217256
     83 C26        -1.5660   -2.7020    0.7900 c         1 MOL      0.653710
     84 O13        -1.4110   -1.5300    0.3310 o         1 MOL     -0.718586
     85 C27        -3.2920   -3.9920   -0.5200 c3        1 MOL     -0.020344
     86 C28        -4.5650   -4.7670   -0.5090 ca        1 MOL     -0.097415
     87 C29        -4.5690   -6.1590   -0.2580 ca        1 MOL     -0.039822
     88 C30        -5.7840   -4.0830   -0.8450 ca        1 MOL     -0.039822
     89 C31        -5.7810   -6.8870   -0.2460 ca        1 MOL     -0.349085
     90 C32        -6.9950   -4.8260   -0.9530 ca        1 MOL     -0.349085
     91 C33        -7.0010   -6.2050   -0.5950 ca        1 MOL      0.420069
     92 O14        -8.1620   -6.9300   -0.6460 oh        1 MOL     -0.516610
     93 H37        -3.6360   -1.3270    0.7830 hn        1 MOL      0.447203
     94 H38        -2.9540   -4.1650    1.5220 h1        1 MOL      0.038182
     95 H39        -2.5330   -4.7380   -0.7520 hc        1 MOL     -0.000544
     96 H40        -3.3520   -3.1270   -1.1820 hc        1 MOL     -0.000544
     97 H41        -3.6430   -6.6320    0.0190 ha        1 MOL      0.112941
     98 H42        -5.7540   -3.0040   -0.9320 ha        1 MOL      0.112941
     99 H43        -5.8340   -7.9040    0.1140 ha        1 MOL      0.172284
    100 H44        -7.9540   -4.4080   -1.2460 ha        1 MOL      0.172284
    101 H45        -8.8730   -6.3050   -0.8300 ho        1 MOL      0.371676
    102 N10        -0.7000   -3.4340    1.4020 n         1 MOL     -0.509283
    103 C34         0.7950   -3.1800    1.5230 c3        1 MOL      0.008525
    104 C35         1.5420   -3.9050    0.4250 c         1 MOL      0.343506
    105 O15         1.5410   -5.1300    0.4180 o         1 MOL     -0.532731
    106 C36         1.4150   -3.4150    2.9160 c3        1 MOL      0.308911
    107 C37         0.6690   -2.5920    4.0340 c3        1 MOL      0.077390
    108 C38         2.8930   -3.1230    2.8950 c3        1 MOL     -0.294574
    109 C39         1.1530   -2.9560    5.4970 c3        1 MOL     -0.247217
    110 H46        -1.0850   -4.1900    1.9420 hn        1 MOL      0.306139
    111 H47         0.9240   -2.1310    1.2450 h1        1 MOL      0.025467
    112 H48         1.2120   -4.4490    3.2270 hc        1 MOL     -0.021943
    113 H49        -0.3670   -2.8780    3.8920 hc        1 MOL     -0.029995
    114 H50         0.9540   -1.5410    3.9210 hc        1 MOL     -0.029995
    115 H51         3.1520   -2.2630    2.2700 hc        1 MOL      0.039942
    116 H52         3.3840   -3.1960    3.8560 hc        1 MOL      0.039942
    117 H53         3.3330   -3.9670    2.3620 hc        1 MOL      0.039942
    118 H54         0.6000   -2.4210    6.2560 hc        1 MOL      0.065619
    119 H55         0.9980   -4.0380    5.6030 hc        1 MOL      0.065619
    120 H56         2.1920   -2.6530    5.5560 hc        1 MOL      0.065619
    121 N11         2.2460   -3.1450   -0.4610 n         1 MOL     -0.022133
    122 C40         3.1070   -3.6800   -1.5140 c3        1 MOL     -0.076704
    123 C41         4.5750   -3.4540   -1.1640 c         1 MOL      0.378099
    124 O16         4.8890   -2.6800   -0.2330 o         1 MOL     -0.413502
    125 C42         2.7710   -3.1230   -2.9360 c3        1 MOL      0.050042
    126 O17         2.7740   -1.7030   -3.0050 oh        1 MOL     -0.512506
    127 H57         2.0990   -2.1530   -0.4530 hn        1 MOL      0.428391
    128 H58         2.9350   -4.7630   -1.5070 h1        1 MOL      0.056796
    129 H59         1.7820   -3.5500   -3.1010 h1        1 MOL      0.047024
    130 H60         3.5500   -3.4990   -3.5980 h1        1 MOL      0.047024
    131 H61         2.2900   -1.3020   -2.2870 ho        1 MOL      0.245819
    132 N12         5.5450   -4.1020   -1.8340 n         1 MOL     -0.343077
    133 C43         6.9500   -3.9950   -1.4940 c3        1 MOL      0.123015
    134 C44         7.5630   -2.5760   -1.5740 c         1 MOL      0.414892
    135 O18         8.5060   -2.2000   -0.7850 o         1 MOL     -0.523759
    136 C45         7.7740   -5.0140   -2.3700 c3        1 MOL     -0.435366
    137 H62         5.2960   -4.7220   -2.5870 hn        1 MOL      0.276080
    138 H63         7.0830   -4.2360   -0.4380 h1        1 MOL      0.078807
    139 H64         7.3910   -6.0050   -2.1440 hc        1 MOL      0.138363
    140 H65         7.5050   -4.8060   -3.4100 hc        1 MOL      0.138363
    141 H66         8.8360   -4.8760   -2.1780 hc        1 MOL      0.138363
    142 N13         7.0890   -1.6890   -2.4620 n         1 MOL     -0.372402
    143 C46         7.6020   -0.2850   -2.4520 c3        1 MOL      0.084883
    144 C47         7.0900    0.5040   -1.2270 c         1 MOL      0.337479
    145 O19         7.4980    1.6420   -0.9830 o         1 MOL     -0.551560
    146 C48         6.9890    0.3490   -3.6820 c3        1 MOL     -0.249547
    147 H67         6.4160   -2.0250   -3.1380 hn        1 MOL      0.268255
    148 H68         8.6650   -0.2060   -2.6380 h1        1 MOL      0.131076
    149 H69         5.9010    0.3910   -3.7720 hc        1 MOL      0.071951
    150 H70         7.3430    1.3810   -3.6390 hc        1 MOL      0.071951
    151 H71         7.4390   -0.0690   -4.5740 hc        1 MOL      0.071951
    152 N14         6.0920    0.0640   -0.4470 n         1 MOL     -0.067961
    153 C49         5.5260    0.6120    0.8290 c3        1 MOL     -0.046999
    154 C50         6.2530    0.1140    2.1270 c         1 MOL      0.505677
    155 O20         6.4850    0.8730    3.0320 o         1 MOL     -0.541887
    156 C51         4.0210    0.2340    0.8740 c3        1 MOL      0.113050
    157 C52         3.3370    0.6950   -0.4220 c3        1 MOL     -0.121951
    158 C53         1.8500    0.4840   -0.3770 c         1 MOL      0.961225
    159 O21         1.4110   -0.5840   -0.7660 o         1 MOL     -0.826236
    160 O22         1.0570    1.3940   -0.0820 o         1 MOL     -0.826236
    161 H72         5.7930   -0.8780   -0.6390 hn        1 MOL      0.124991
    162 H73         5.5780    1.7030    0.8530 h1        1 MOL      0.073107
    163 H74         3.5690    0.7200    1.7480 hc        1 MOL     -0.019962
    164 H75         3.9070   -0.8480    0.8830 hc        1 MOL     -0.019962
    165 H76         3.8200    0.2070   -1.2690 hc        1 MOL     -0.041405
    166 H77         3.4820    1.7750   -0.4610 hc        1 MOL     -0.041405
    167 N15         6.6240   -1.1370    2.0990 n         1 MOL     -0.174474
    168 C54         7.5960   -1.6040    3.0760 c3        1 MOL     -0.351845
    169 H78         7.1800   -2.4480    3.6250 h1        1 MOL      0.135941
    170 H79         8.5050   -1.9170    2.5630 h1        1 MOL      0.135941
    171 H80         7.8290   -0.7980    3.7720 h1        1 MOL      0.135941
    172 H81         6.2290   -1.7800    1.4350 hn        1 MOL      0.216860
    173 Ca1        -1.0760    0.4450   -1.2830 Ca        1 MOL      1.771213
    174 O23        -0.9160   -1.9610   -2.4470 oh        1 MOL     -0.841707
    175 H82        -0.6490   -2.8780   -2.5430 ho        1 MOL      0.407494
    176 H83        -1.2830   -1.7360   -3.3010 ho        1 MOL      0.407494
    177 O24        -2.2390    0.2240   -3.7040 oh        1 MOL     -0.841707
    178 H84        -2.6710   -0.3140   -4.3690 ho        1 MOL      0.407494
    179 H85        -2.4630    1.1260   -3.9410 ho        1 MOL      0.407494
    180 O25         0.5450    1.5210   -3.0870 oh        1 MOL     -0.841707
    181 H86         1.4830    1.6860   -2.9530 ho        1 MOL      0.407494
    182 H87         0.4490    1.4560   -4.0310 ho        1 MOL      0.407494
@<TRIPOS>BOND
     1    1    2 1   
     2    1    4 1   
     3    1    5 1   
     4    1    6 1   
     5    2    3 2   
     6    2    7 1   
     7    7    8 1   
     8    7   15 1   
     9    8    9 1   
    10    8   11 1   
    11    8   16 1   
    12    9   10 2   
    13    9   19 1   
    14   11   12 1   
    15   11   17 1   
    16   11   18 1   
    17   12   13 1   
    18   12   14 1   
    19   19   20 1   
    20   19   28 1   
    21   20   21 1   
    22   20   23 1   
    23   20   29 1   
    24   21   22 2   
    25   21   41 1   
    26   23   24 1   
    27   23   30 1   
    28   23   31 1   
    29   24   25 1   
    30   24   32 1   
    31   24   33 1   
    32   25   26 1   
    33   25   34 1   
    34   25   35 1   
    35   26   27 1   
    36   26   36 1   
    37   26   37 1   
    38   27   38 1   
    39   27   39 1   
    40   27   40 1   
    41   41   42 1   
    42   41   49 1   
    43   42   43 1   
    44   42   45 1   
    45   42   50 1   
    46   43   44 2   
    47   43   53 1   
    48   45   46 1   
    49   45   51 1   
    50   45   52 1   
    51   46   47 1   
    52   46   48 1   
    53   53   54 1   
    54   53   57 1   
    55   54   55 1   
    56   54   58 1   
    57   54   59 1   
    58   55   56 2   
    59   55   60 1   
    60   60   61 1   
    61   60   68 1   
    62   61   62 1   
    63   61   64 1   
    64   61   69 1   
    65   62   63 2   
    66   62   74 1   
    67   64   65 1   
    68   64   70 1   
    69   64   71 1   
    70   65   66 1   
    71   65   67 2   
    72   66   72 1   
    73   66   73 1   
    74   74   75 1   
    75   74   78 1   
    76   75   76 1   
    77   75   79 1   
    78   75   80 1   
    79   76   77 2   
    80   76   81 1   
    81   81   82 1   
    82   81   93 1   
    83   82   83 1   
    84   82   85 1   
    85   82   94 1   
    86   83   84 2   
    87   83  102 1   
    88   85   86 1   
    89   85   95 1   
    90   85   96 1   
    91   86   87 ar  
    92   86   88 ar  
    93   87   89 ar  
    94   87   97 1   
    95   88   90 ar  
    96   88   98 1   
    97   89   91 ar  
    98   89   99 1   
    99   90   91 ar  
   100   90  100 1   
   101   91   92 1   
   102   92  101 1   
   103  102  103 1   
   104  102  110 1   
   105  103  104 1   
   106  103  106 1   
   107  103  111 1   
   108  104  105 2   
   109  104  121 1   
   110  106  107 1   
   111  106  108 1   
   112  106  112 1   
   113  107  109 1   
   114  107  113 1   
   115  107  114 1   
   116  108  115 1   
   117  108  116 1   
   118  108  117 1   
   119  109  118 1   
   120  109  119 1   
   121  109  120 1   
   122  121  122 1   
   123  121  127 1   
   124  122  123 1   
   125  122  125 1   
   126  122  128 1   
   127  123  124 2   
   128  123  132 1   
   129  125  126 1   
   130  125  129 1   
   131  125  130 1   
   132  126  131 1   
   133  132  133 1   
   134  132  137 1   
   135  133  134 1   
   136  133  136 1   
   137  133  138 1   
   138  134  135 2   
   139  134  142 1   
   140  136  139 1   
   141  136  140 1   
   142  136  141 1   
   143  142  143 1   
   144  142  147 1   
   145  143  144 1   
   146  143  146 1   
   147  143  148 1   
   148  144  145 2   
   149  144  152 1   
   150  146  149 1   
   151  146  150 1   
   152  146  151 1   
   153  152  153 1   
   154  152  161 1   
   155  153  154 1   
   156  153  156 1   
   157  153  162 1   
   158  154  155 2   
   159  154  167 1   
   160  156  157 1   
   161  156  163 1   
   162  156  164 1   
   163  157  158 1   
   164  157  165 1   
   165  157  166 1   
   166  158  159 1   
   167  158  160 1   
   168  167  168 1   
   169  167  172 1   
   170  168  169 1   
   171  168  170 1   
   172  168  171 1   
   173  174  175 1   
   174  174  176 1   
   175  177  178 1   
   176  177  179 1   
   177  180  181 1   
   178  180  182 1   
@<TRIPOS>SUBSTRUCTURE
     1 MOL         1 TEMP              0 ****  ****    0 ROOT
