@<TRIPOS>MOLECULE
MOL
  179   176     1     0     0
SMALL
resp


@<TRIPOS>ATOM
      1 C1          2.2670    1.4410    6.0160 c3        1 MOL     -0.264493
      2 C2          1.7820    1.3970    4.5830 c         1 MOL      0.882567
      3 O1          2.5940    1.2760    3.6990 o         1 MOL     -0.618588
      4 H1          1.7470    0.6820    6.5990 hc        1 MOL      0.058350
      5 H2          3.3390    1.2490    6.0430 hc        1 MOL      0.058350
      6 H3          2.0630    2.4250    6.4390 hc        1 MOL      0.058350
      7 N1          0.4510    1.6350    4.3460 n         1 MOL     -0.715586
      8 C3         -0.1740    1.8510    3.0400 c3        1 MOL      0.068228
      9 C4          0.0490    3.3020    2.5890 c         1 MOL      0.614028
     10 O2         -0.2380    4.2530    3.3550 o         1 MOL     -0.558510
     11 C5         -1.7020    1.3880    3.2780 c3        1 MOL     -0.269482
     12 C6         -2.5610    1.4000    2.0450 c         1 MOL      0.831973
     13 O3         -3.7470    1.0560    2.1610 o         1 MOL     -0.705121
     14 O4         -2.0610    1.6410    0.9300 o         1 MOL     -0.705121
     15 H4         -0.0920    1.6850    5.2020 hn        1 MOL      0.333331
     16 H5          0.1850    1.1390    2.2940 h1        1 MOL      0.109897
     17 H6         -2.1350    2.0600    4.0220 hc        1 MOL      0.079644
     18 H7         -1.6030    0.3670    3.6540 hc        1 MOL      0.079644
     19 N2          0.6490    3.5580    1.4210 n         1 MOL     -0.469591
     20 C7          0.9120    4.9360    0.9270 c3        1 MOL      0.135058
     21 C8         -0.2930    5.5180    0.2900 c         1 MOL      0.283654
     22 O5         -0.6660    6.6210    0.6640 o         1 MOL     -0.505675
     23 C9          2.1330    4.9720   -0.0260 c3        1 MOL     -0.167326
     24 C10         2.4650    6.3590   -0.4970 c3        1 MOL     -0.115259
     25 C11         3.5350    6.2250   -1.6020 c3        1 MOL      0.150686
     26 C12         4.1660    7.4510   -2.1540 c3        1 MOL     -0.053775
     27 N3          3.2310    8.4050   -2.8770 n4        1 MOL     -0.402863
     28 H8          0.8380    2.7990    0.7840 hn        1 MOL      0.273382
     29 H9          1.1180    5.4820    1.8550 h1        1 MOL      0.082919
     30 H10         1.8830    4.3580   -0.8910 hc        1 MOL      0.093243
     31 H11         2.9980    4.5690    0.4990 hc        1 MOL      0.093243
     32 H12         2.8870    6.9830    0.2910 hc        1 MOL      0.053993
     33 H13         1.5660    6.8530   -0.8510 hc        1 MOL      0.053993
     34 H14         3.1280    5.6870   -2.4580 hc        1 MOL     -0.000739
     35 H15         4.3500    5.6420   -1.1810 hc        1 MOL     -0.000739
     36 H16         4.9800    7.1360   -2.8150 hx        1 MOL      0.100708
     37 H17         4.6220    7.9200   -1.2840 hx        1 MOL      0.100708
     38 H18         2.5950    7.9400   -3.5060 hn        1 MOL      0.341216
     39 H19         2.7890    9.0710   -2.2680 hn        1 MOL      0.341216
     40 H20         3.9200    8.9570   -3.3710 hn        1 MOL      0.341216
     41 N4         -0.7460    4.8410   -0.7750 n         1 MOL     -0.166467
     42 C13        -1.8830    5.2890   -1.5630 c3        1 MOL      0.113533
     43 C14        -3.2030    5.1920   -0.7790 c         1 MOL      0.378620
     44 O6         -4.1220    5.9780   -1.0150 o         1 MOL     -0.529856
     45 C15        -1.8490    4.5230   -2.9130 c3        1 MOL     -0.505467
     46 C16        -1.8220    3.0590   -2.6420 c         1 MOL      0.918859
     47 O7         -0.6720    2.4790   -2.5770 o         1 MOL     -0.764085
     48 O8         -2.8430    2.4160   -2.3190 o         1 MOL     -0.764085
     49 H21        -0.3640    3.9590   -1.0770 hn        1 MOL      0.191460
     50 H22        -1.7260    6.3590   -1.6840 h1        1 MOL      0.052484
     51 H23        -0.9100    4.8240   -3.3670 hc        1 MOL      0.123537
     52 H24        -2.8240    4.6550   -3.3920 hc        1 MOL      0.123537
     53 N5         -3.3810    4.2540    0.1940 n         1 MOL      0.090631
     54 C17        -4.4300    4.1730    1.2060 c3        1 MOL     -0.097927
     55 C18        -5.5900    3.3090    0.5690 c         1 MOL      0.502605
     56 O9         -6.5960    3.9340    0.2670 o         1 MOL     -0.558924
     57 H25        -2.7500    3.4590    0.1790 hn        1 MOL     -0.025792
     58 H26        -4.7270    5.2080    1.3960 h1        1 MOL      0.060957
     59 H27        -4.0410    3.7130    2.1160 h1        1 MOL      0.060957
     60 N6         -5.3690    2.0790    0.1320 n         1 MOL     -0.139477
     61 C19        -6.3450    1.3690   -0.6530 c3        1 MOL      0.035697
     62 C20        -6.7020    0.0160    0.0280 c         1 MOL      0.335082
     63 O10        -7.5200   -0.7290   -0.5140 o         1 MOL     -0.516700
     64 C21        -5.8000    1.1960   -2.1120 c3        1 MOL     -0.235410
     65 C22        -4.8590    0.0410   -2.1360 c         1 MOL      0.480917
     66 N7         -4.9440   -0.7900   -3.0950 n         1 MOL     -0.484551
     67 O11        -4.0410   -0.1770   -1.1860 o         1 MOL     -0.708599
     68 H28        -4.6230    1.5390    0.5570 hn        1 MOL      0.050000
     69 H29        -7.2570    1.9570   -0.6990 h1        1 MOL      0.095793
     70 H30        -5.3060    2.1360   -2.3800 hc        1 MOL      0.122920
     71 H31        -6.6260    1.0070   -2.8100 hc        1 MOL      0.122920
     72 H32        -5.5690   -0.6460   -3.8690 hn        1 MOL      0.296862
     73 H33        -4.2920   -1.5500   -3.1150 hn        1 MOL      0.296862
     74 N8         -6.1600   -0.3100    1.1780 n         1 MOL     -0.236944
     75 C23        -6.4790   -1.6200    1.8620 c3        1 MOL     -0.163116
     76 C24        -5.3540   -2.6030    1.8600 c         1 MOL      0.576210
     77 O12        -5.4570   -3.5720    2.6160 o         1 MOL     -0.586778
     78 H34        -5.4940    0.3440    1.5690 hn        1 MOL      0.232571
     79 H35        -7.3200   -2.1140    1.3810 h1        1 MOL      0.119075
     80 H36        -6.7300   -1.4000    2.9010 h1        1 MOL      0.119075
     81 N9         -4.3260   -2.3510    1.0690 n         1 MOL     -0.376268
     82 C25        -3.1870   -3.2540    0.8990 c3        1 MOL      0.073222
     83 C26        -1.8300   -2.5570    1.0750 c         1 MOL      0.336447
     84 O13        -1.7780   -1.3960    0.6680 o         1 MOL     -0.551434
     85 C27        -3.1810   -4.0850   -0.3490 c3        1 MOL      0.107483
     86 C28        -4.4710   -4.7960   -0.7160 ca        1 MOL     -0.066047
     87 C29        -5.4520   -4.0850   -1.4300 ca        1 MOL     -0.048621
     88 C30        -4.6480   -6.1520   -0.4390 ca        1 MOL     -0.048621
     89 C31        -6.4910   -4.7940   -1.9940 ca        1 MOL     -0.383143
     90 C32        -5.7250   -6.8770   -0.9540 ca        1 MOL     -0.383143
     91 C33        -6.7100   -6.1780   -1.6730 ca        1 MOL      0.458254
     92 O14        -7.7230   -6.8400   -2.2370 oh        1 MOL     -0.489610
     93 H37        -4.2680   -1.4970    0.5350 hn        1 MOL      0.430370
     94 H38        -3.3290   -4.0650    1.6060 h1        1 MOL      0.042370
     95 H39        -2.3770   -4.8140   -0.4230 hc        1 MOL     -0.025672
     96 H40        -2.9280   -3.3550   -1.1130 hc        1 MOL     -0.025672
     97 H41        -5.3720   -3.0350   -1.6790 ha        1 MOL      0.106260
     98 H42        -3.9240   -6.5930    0.2280 ha        1 MOL      0.106260
     99 H43        -7.3240   -4.3430   -2.5050 ha        1 MOL      0.168899
    100 H44        -5.8720   -7.9260   -0.7150 ha        1 MOL      0.168899
    101 H45        -7.6930   -7.7410   -1.9090 ho        1 MOL      0.355391
    102 N10        -0.7870   -3.3310    1.5810 n         1 MOL     -0.293174
    103 C34         0.6120   -2.8920    1.5800 c3        1 MOL      0.059843
    104 C35         1.3450   -3.7160    0.4760 c         1 MOL      0.382203
    105 O15         1.1510   -4.9120    0.3290 o         1 MOL     -0.544297
    106 C36         1.2580   -3.2380    2.9180 c3        1 MOL      0.078380
    107 C37         0.4390   -2.5750    4.0340 c3        1 MOL      0.317336
    108 C38         2.6580   -2.3860    2.9700 c3        1 MOL     -0.341101
    109 C39         0.8610   -3.1210    5.3090 c3        1 MOL     -0.412824
    110 H46        -1.0180   -4.2460    1.9250 hn        1 MOL      0.259293
    111 H47         0.7750   -1.8450    1.3340 h1        1 MOL      0.058089
    112 H48         1.4260   -4.3190    2.9590 hc        1 MOL      0.027483
    113 H49        -0.6070   -2.8910    3.9940 hc        1 MOL     -0.056010
    114 H50         0.6200   -1.5010    4.0420 hc        1 MOL     -0.056010
    115 H51         2.5470   -1.3520    3.2800 hc        1 MOL      0.056112
    116 H52         3.3170   -2.9100    3.6570 hc        1 MOL      0.056112
    117 H53         3.1680   -2.3920    2.0100 hc        1 MOL      0.056112
    118 H54         0.4040   -2.5890    6.1430 hc        1 MOL      0.086104
    119 H55         0.8690   -4.2120    5.3200 hc        1 MOL      0.086104
    120 H56         1.8960   -2.8650    5.5450 hc        1 MOL      0.086104
    121 N11         2.2250   -3.0500   -0.3280 n         1 MOL     -0.096739
    122 C40         3.2140   -3.7430   -1.2620 c3        1 MOL      0.126367
    123 C41         4.6570   -3.7110   -0.7000 c         1 MOL      0.226554
    124 O16         4.9000   -2.9500    0.2190 o         1 MOL     -0.295405
    125 C42         3.1840   -3.2840   -2.7170 c3        1 MOL      0.124017
    126 O17         1.7730   -3.2250   -3.0990 oh        1 MOL     -0.618244
    127 H57         2.3130   -2.0560   -0.1890 hn        1 MOL      0.210441
    128 H58         3.0230   -4.8100   -1.2800 h1        1 MOL      0.066552
    129 H59         3.7410   -3.9920   -3.3270 h1        1 MOL      0.017471
    130 H60         3.6410   -2.2910   -2.7950 h1        1 MOL      0.017471
    131 H61         1.6490   -3.1780   -4.0470 ho        1 MOL      0.413338
    132 N12         5.6500   -4.5150   -1.1230 n         1 MOL     -0.309635
    133 C43         7.0370   -4.3340   -0.7500 c3        1 MOL      0.086899
    134 C44         7.6220   -2.9340   -1.1090 c         1 MOL      0.380252
    135 O18         8.3900   -2.4040   -0.3110 o         1 MOL     -0.471733
    136 C45         7.7610   -5.4230   -1.5040 c3        1 MOL     -0.286298
    137 H62         5.5080   -5.3460   -1.6850 hn        1 MOL      0.253357
    138 H63         7.0400   -4.4550    0.3350 h1        1 MOL      0.084396
    139 H64         8.7860   -5.6660   -1.2410 hc        1 MOL      0.092021
    140 H65         7.2290   -6.3490   -1.2980 hc        1 MOL      0.092021
    141 H66         7.6110   -5.2340   -2.5680 hc        1 MOL      0.092021
    142 N13         7.2760   -2.3470   -2.2490 n         1 MOL     -0.291348
    143 C46         7.5870   -0.9250   -2.5740 c3        1 MOL      0.089014
    144 C47         7.0190    0.0110   -1.5590 c         1 MOL      0.359938
    145 O19         7.5830    1.0320   -1.2360 o         1 MOL     -0.522537
    146 C48         6.9340   -0.7140   -3.9450 c3        1 MOL     -0.354103
    147 H67         6.6890   -2.7890   -2.9320 hn        1 MOL      0.200891
    148 H68         8.6730   -0.8380   -2.5490 h1        1 MOL      0.101645
    149 H69         7.1760    0.2530   -4.3670 hc        1 MOL      0.106851
    150 H70         7.2330   -1.4980   -4.6440 hc        1 MOL      0.106851
    151 H71         5.8540   -0.7630   -3.8360 hc        1 MOL      0.106851
    152 N14         5.9780   -0.3650   -0.8220 n         1 MOL     -0.010565
    153 C49         5.3200    0.5270    0.1740 c3        1 MOL     -0.032734
    154 C50         5.9180    0.2970    1.5550 c         1 MOL      0.480957
    155 O20         6.2370    1.3070    2.1500 o         1 MOL     -0.536555
    156 C51         3.8060    0.3340    0.2610 c3        1 MOL      0.214290
    157 C52         3.1250    0.8340   -0.9410 c3        1 MOL     -0.053569
    158 C53         1.6470    0.5930   -0.8590 c         1 MOL      0.825459
    159 O21         1.1820   -0.2560   -1.6650 o         1 MOL     -0.817489
    160 O22         0.8690    1.1290   -0.1080 o         1 MOL     -0.817489
    161 H72         5.5200   -1.2050   -1.1440 hn        1 MOL      0.058038
    162 H73         5.5710    1.5750   -0.0020 h1        1 MOL      0.068900
    163 H74         3.3140    0.8210    1.1150 hc        1 MOL     -0.034878
    164 H75         3.6810   -0.7470    0.2680 hc        1 MOL     -0.034878
    165 H76         3.6070    0.4270   -1.8280 hc        1 MOL     -0.053377
    166 H77         3.2930    1.9060   -1.0370 hc        1 MOL     -0.053377
    167 N15         6.1580   -0.9680    1.9200 n         1 MOL     -0.214238
    168 C54         6.9930   -1.2880    3.0710 c3        1 MOL     -0.233679
    169 H78         7.7870   -1.9680    2.7650 h1        1 MOL      0.099556
    170 H79         7.4320   -0.3730    3.4690 h1        1 MOL      0.099556
    171 H80         6.3850   -1.7640    3.8410 h1        1 MOL      0.099556
    172 H81         5.7570   -1.7220    1.3800 hn        1 MOL      0.174669
    173 Ca1        -1.4600    0.3510   -1.2200 Ca        1 MOL      1.794469
    174 O23        -0.6370   -2.2420   -2.0100 oh        1 MOL     -0.821587
    175 H82        -0.9960   -3.0460   -2.3780 ho        1 MOL      0.391544
    176 H83         0.2880   -2.2510   -2.2700 ho        1 MOL      0.391544
    177 O24        -1.6640    0.1960   -3.7910 oh        1 MOL     -0.821587
    178 H84        -2.0840    0.6680   -4.5100 ho        1 MOL      0.391544
    179 H85        -1.5110   -0.6850   -4.1390 ho        1 MOL      0.391544
@<TRIPOS>BOND
     1    1    2 1   
     2    1    4 1   
     3    1    5 1   
     4    1    6 1   
     5    2    3 2   
     6    2    7 1   
     7    7    8 1   
     8    7   15 1   
     9    8    9 1   
    10    8   11 1   
    11    8   16 1   
    12    9   10 2   
    13    9   19 1   
    14   11   12 1   
    15   11   17 1   
    16   11   18 1   
    17   12   13 1   
    18   12   14 1   
    19   19   20 1   
    20   19   28 1   
    21   20   21 1   
    22   20   23 1   
    23   20   29 1   
    24   21   22 2   
    25   21   41 1   
    26   23   24 1   
    27   23   30 1   
    28   23   31 1   
    29   24   25 1   
    30   24   32 1   
    31   24   33 1   
    32   25   26 1   
    33   25   34 1   
    34   25   35 1   
    35   26   27 1   
    36   26   36 1   
    37   26   37 1   
    38   27   38 1   
    39   27   39 1   
    40   27   40 1   
    41   41   42 1   
    42   41   49 1   
    43   42   43 1   
    44   42   45 1   
    45   42   50 1   
    46   43   44 2   
    47   43   53 1   
    48   45   46 1   
    49   45   51 1   
    50   45   52 1   
    51   46   47 1   
    52   46   48 1   
    53   53   54 1   
    54   53   57 1   
    55   54   55 1   
    56   54   58 1   
    57   54   59 1   
    58   55   56 2   
    59   55   60 1   
    60   60   61 1   
    61   60   68 1   
    62   61   62 1   
    63   61   64 1   
    64   61   69 1   
    65   62   63 2   
    66   62   74 1   
    67   64   65 1   
    68   64   70 1   
    69   64   71 1   
    70   65   66 1   
    71   65   67 2   
    72   66   72 1   
    73   66   73 1   
    74   74   75 1   
    75   74   78 1   
    76   75   76 1   
    77   75   79 1   
    78   75   80 1   
    79   76   77 2   
    80   76   81 1   
    81   81   82 1   
    82   81   93 1   
    83   82   83 1   
    84   82   85 1   
    85   82   94 1   
    86   83   84 2   
    87   83  102 1   
    88   85   86 1   
    89   85   95 1   
    90   85   96 1   
    91   86   87 ar  
    92   86   88 ar  
    93   87   89 ar  
    94   87   97 1   
    95   88   90 ar  
    96   88   98 1   
    97   89   91 ar  
    98   89   99 1   
    99   90   91 ar  
   100   90  100 1   
   101   91   92 1   
   102   92  101 1   
   103  102  103 1   
   104  102  110 1   
   105  103  104 1   
   106  103  106 1   
   107  103  111 1   
   108  104  105 2   
   109  104  121 1   
   110  106  107 1   
   111  106  108 1   
   112  106  112 1   
   113  107  109 1   
   114  107  113 1   
   115  107  114 1   
   116  108  115 1   
   117  108  116 1   
   118  108  117 1   
   119  109  118 1   
   120  109  119 1   
   121  109  120 1   
   122  121  122 1   
   123  121  127 1   
   124  122  123 1   
   125  122  125 1   
   126  122  128 1   
   127  123  124 2   
   128  123  132 1   
   129  125  126 1   
   130  125  129 1   
   131  125  130 1   
   132  126  131 1   
   133  132  133 1   
   134  132  137 1   
   135  133  134 1   
   136  133  136 1   
   137  133  138 1   
   138  134  135 2   
   139  134  142 1   
   140  136  139 1   
   141  136  140 1   
   142  136  141 1   
   143  142  143 1   
   144  142  147 1   
   145  143  144 1   
   146  143  146 1   
   147  143  148 1   
   148  144  145 2   
   149  144  152 1   
   150  146  149 1   
   151  146  150 1   
   152  146  151 1   
   153  152  153 1   
   154  152  161 1   
   155  153  154 1   
   156  153  156 1   
   157  153  162 1   
   158  154  155 2   
   159  154  167 1   
   160  156  157 1   
   161  156  163 1   
   162  156  164 1   
   163  157  158 1   
   164  157  165 1   
   165  157  166 1   
   166  158  159 1   
   167  158  160 1   
   168  167  168 1   
   169  167  172 1   
   170  168  169 1   
   171  168  170 1   
   172  168  171 1   
   173  174  175 1   
   174  174  176 1   
   175  177  178 1   
   176  177  179 1   
@<TRIPOS>SUBSTRUCTURE
     1 MOL         1 TEMP              0 ****  ****    0 ROOT
