@<TRIPOS>MOLECULE
MOL
  189   185     1     0     0
SMALL
resp


@<TRIPOS>ATOM
      1 C1          0.4790    1.9200    5.6550 c3        1 MOL     -0.470461
      2 C2         -0.0880    2.0440    4.2240 c         1 MOL      0.770627
      3 O1          0.6220    2.5090    3.3660 o         1 MOL     -0.597189
      4 H1         -0.3330    1.7040    6.3500 hc        1 MOL      0.117463
      5 H2          1.2090    1.1110    5.6890 hc        1 MOL      0.117463
      6 H3          0.9590    2.8570    5.9380 hc        1 MOL      0.117463
      7 N1         -1.3210    1.5950    3.9780 n         1 MOL     -0.655672
      8 C3         -1.8860    1.5360    2.6280 c3        1 MOL      0.319298
      9 C4         -2.2370    3.0090    2.1840 c         1 MOL      0.310849
     10 O2         -3.0840    3.6950    2.7010 o         1 MOL     -0.522676
     11 C5         -3.0990    0.5510    2.6590 c3        1 MOL     -0.407192
     12 C6         -3.9630    0.4690    1.4080 c         1 MOL      0.827554
     13 O3         -5.0950   -0.0030    1.4990 o         1 MOL     -0.696261
     14 O4         -3.4060    0.7150    0.3380 o         1 MOL     -0.696261
     15 H4         -1.8930    1.2080    4.7200 hn        1 MOL      0.345455
     16 H5         -1.2100    1.1040    1.8920 h1        1 MOL     -0.006322
     17 H6         -3.6450    0.7600    3.5850 hc        1 MOL      0.081459
     18 H7         -2.7910   -0.4980    2.7450 hc        1 MOL      0.081459
     19 N2         -1.4670    3.4450    1.1820 n         1 MOL      0.056821
     20 C7         -1.4800    4.8330    0.7010 c3        1 MOL     -0.118614
     21 C8         -2.5160    5.0430   -0.4290 c         1 MOL      0.526741
     22 O5         -2.9660    6.1950   -0.6440 o         1 MOL     -0.584887
     23 C9         -0.0000    5.1980    0.3410 c3        1 MOL     -0.143463
     24 C10         1.1240    5.1670    1.4010 c3        1 MOL      0.248096
     25 C11         0.7680    5.8760    2.6890 c3        1 MOL     -0.062897
     26 C12         1.9510    6.1120    3.6630 c3        1 MOL      0.001148
     27 N3          1.4720    6.8090    4.9170 n4        1 MOL     -0.208548
     28 H8         -0.7630    2.8710    0.7490 hn        1 MOL      0.189147
     29 H9         -1.7230    5.4240    1.5810 h1        1 MOL      0.053721
     30 H10         0.1220    6.2100   -0.0580 hc        1 MOL      0.025647
     31 H11         0.3380    4.5970   -0.4970 hc        1 MOL      0.025647
     32 H12         1.9900    5.6850    0.9700 hc        1 MOL     -0.032620
     33 H13         1.5090    4.1560    1.5530 hc        1 MOL     -0.032620
     34 H14         0.0270    5.2760    3.2290 hc        1 MOL      0.023836
     35 H15         0.4150    6.8570    2.4060 hc        1 MOL      0.023836
     36 H16         2.6200    6.7260    3.0590 hx        1 MOL      0.073827
     37 H17         2.4040    5.1480    3.9230 hx        1 MOL      0.073827
     38 H18         0.9630    7.6430    4.6560 hn        1 MOL      0.287136
     39 H19         0.8040    6.2970    5.4700 hn        1 MOL      0.287136
     40 H20         2.2600    7.1760    5.4340 hn        1 MOL      0.287136
     41 N4         -3.1290    4.0200   -1.0070 n         1 MOL     -0.259807
     42 C13        -4.2530    3.9910   -2.0160 c3        1 MOL     -0.128470
     43 C14        -5.5550    3.3550   -1.5980 c         1 MOL      0.490670
     44 O6         -6.5360    3.4290   -2.2870 o         1 MOL     -0.529631
     45 C15        -3.8000    3.5310   -3.3580 c3        1 MOL     -0.095268
     46 C16        -3.1160    2.1350   -3.5250 c         1 MOL      0.662331
     47 O7         -2.5850    1.8170   -4.6760 o         1 MOL     -0.701177
     48 O8         -2.9830    1.3880   -2.5330 o         1 MOL     -0.701177
     49 H21        -2.8570    3.0990   -0.6880 hn        1 MOL      0.122736
     50 H22        -4.5290    5.0420   -2.1300 h1        1 MOL      0.149128
     51 H23        -3.1310    4.3050   -3.7480 hc        1 MOL      0.042123
     52 H24        -4.5380    3.6190   -4.1540 hc        1 MOL      0.042123
     53 N5         -5.6460    2.8140   -0.4040 n         1 MOL     -0.252593
     54 C17        -6.8400    2.2470    0.2720 c3        1 MOL     -0.183576
     55 C18        -7.3950    1.0080   -0.4150 c         1 MOL      0.535986
     56 O9         -8.6330    0.7330   -0.4640 o         1 MOL     -0.608653
     57 H25        -4.7260    2.6180   -0.0490 hn        1 MOL      0.187321
     58 H26        -7.5590    3.0590    0.2750 h1        1 MOL      0.107161
     59 H27        -6.5600    1.9910    1.2840 h1        1 MOL      0.107161
     60 N6         -6.5610    0.2800   -1.0900 n         1 MOL     -0.274155
     61 C19        -6.8390   -1.0050   -1.7580 c3        1 MOL     -0.033961
     62 C20        -6.8140   -2.3260   -0.8550 c         1 MOL      0.401688
     63 O10        -7.1680   -3.3690   -1.3960 o         1 MOL     -0.539961
     64 C21        -5.8780   -1.2060   -2.9630 c3        1 MOL     -0.421352
     65 C22        -4.4050   -1.4440   -2.6350 c         1 MOL      0.763652
     66 O11        -3.5290   -1.5090   -3.4970 o         1 MOL     -0.671871
     67 O12        -4.0420   -1.7420   -1.4450 o         1 MOL     -0.671871
     68 H28        -5.5920    0.5500   -1.0220 hn        1 MOL      0.317680
     69 H29        -7.8550   -0.9500   -2.1550 h1        1 MOL      0.138505
     70 H30        -5.8600   -0.3290   -3.6190 hc        1 MOL      0.133430
     71 H31        -6.3080   -2.0330   -3.5260 hc        1 MOL      0.133430
     72 N7         -6.4160   -2.2560    0.3970 n         1 MOL     -0.175637
     73 C23        -6.6250   -3.3610    1.3590 c3        1 MOL     -0.182267
     74 C24        -5.3340   -4.2250    1.4440 c         1 MOL      0.563998
     75 O13        -5.4690   -5.1660    2.2210 o         1 MOL     -0.549683
     76 H32        -6.0680   -1.3880    0.7820 hn        1 MOL      0.230002
     77 H33        -7.4900   -3.9230    1.0180 h1        1 MOL      0.108910
     78 H34        -6.8460   -2.9420    2.3470 h1        1 MOL      0.108910
     79 N8         -4.2030   -3.8670    0.7350 n         1 MOL     -0.255755
     80 C25        -2.9510   -4.5520    0.7210 c3        1 MOL     -0.190511
     81 C26        -1.7820   -3.6260    0.9860 c         1 MOL      0.707030
     82 O14        -1.7720   -2.4450    0.5340 o         1 MOL     -0.710588
     83 C27        -2.7570   -5.4200   -0.5100 c3        1 MOL      0.532326
     84 C28        -3.8930   -6.4290   -0.5380 c3        1 MOL     -0.423167
     85 O15        -2.7930   -4.5230   -1.6440 oh        1 MOL     -0.650661
     86 H35        -4.2350   -2.9970    0.2190 hn        1 MOL      0.155218
     87 H36        -3.0150   -5.2480    1.5630 h1        1 MOL      0.034812
     88 H37        -1.8430   -5.9820   -0.3480 h1        1 MOL     -0.023747
     89 H38        -3.5550   -3.9490   -1.4850 ho        1 MOL      0.415230
     90 H39        -3.6350   -7.0610   -1.3910 hc        1 MOL      0.108746
     91 H40        -3.9320   -7.0430    0.3620 hc        1 MOL      0.108746
     92 H41        -4.7110   -5.7260   -0.6590 hc        1 MOL      0.108746
     93 N9         -0.7070   -4.1840    1.5100 n         1 MOL     -0.528758
     94 C29         0.5770   -3.4360    1.8000 c3        1 MOL     -0.043463
     95 C30         1.6370   -3.9480    0.8210 c         1 MOL      0.406600
     96 O16         1.8630   -5.1610    0.7230 o         1 MOL     -0.539880
     97 C31         1.0110   -3.5410    3.3410 c3        1 MOL      0.226720
     98 C32        -0.2270   -3.3190    4.2620 c3        1 MOL      0.040657
     99 C33         2.2020   -2.4770    3.4510 c3        1 MOL     -0.350831
    100 C34         0.1690   -3.3660    5.7120 c3        1 MOL     -0.238134
    101 H42        -0.6730   -5.1570    1.7840 hn        1 MOL      0.307301
    102 H43         0.3780   -2.4150    1.4870 h1        1 MOL      0.151420
    103 H44         1.3880   -4.5230    3.6460 hc        1 MOL      0.000793
    104 H45        -0.8760   -4.1860    4.1590 hc        1 MOL      0.017831
    105 H46        -0.8740   -2.4850    4.0140 hc        1 MOL      0.017831
    106 H47         1.9130   -1.5160    3.0240 hc        1 MOL      0.066220
    107 H48         2.5650   -2.4200    4.4720 hc        1 MOL      0.066220
    108 H49         3.0630   -2.8850    2.9080 hc        1 MOL      0.066220
    109 H50         0.8380   -2.6170    6.1290 hc        1 MOL      0.058664
    110 H51        -0.6750   -3.4150    6.4060 hc        1 MOL      0.058664
    111 H52         0.5970   -4.3450    5.8980 hc        1 MOL      0.058664
    112 N10         2.4150   -3.0700    0.1740 n         1 MOL     -0.043876
    113 C35         3.5670   -3.3500   -0.6980 c3        1 MOL      0.039447
    114 C36         4.9850   -3.0490   -0.0690 c         1 MOL      0.210017
    115 O17         5.0460   -2.4150    1.0070 o         1 MOL     -0.349254
    116 C37         3.4090   -2.5390   -1.9840 c3        1 MOL      0.146833
    117 C38         2.2130   -2.8700   -2.8290 c3        1 MOL     -0.453528
    118 O18         3.1810   -1.2580   -1.5260 oh        1 MOL     -0.505033
    119 H53         2.1820   -2.0850    0.2050 hn        1 MOL      0.153193
    120 H54         3.5220   -4.4090   -0.9240 h1        1 MOL      0.065751
    121 H55         4.3410   -2.4870   -2.5360 h1        1 MOL      0.047163
    122 H56         2.2490   -1.1150   -1.3560 ho        1 MOL      0.382390
    123 H57         2.3750   -3.8730   -3.2250 hc        1 MOL      0.132429
    124 H58         1.4040   -2.9470   -2.1030 hc        1 MOL      0.132429
    125 H59         1.9220   -2.1410   -3.5950 hc        1 MOL      0.132429
    126 N11         6.0940   -3.3110   -0.7620 n         1 MOL     -0.147787
    127 C39         7.4230   -2.7040   -0.4230 c3        1 MOL     -0.249836
    128 C40         7.5390   -1.1670   -0.5730 c         1 MOL      0.436280
    129 O19         8.2910   -0.4940    0.1400 o         1 MOL     -0.503251
    130 C41         8.5280   -3.2360   -1.3970 c3        1 MOL      0.207360
    131 C42         8.8380   -4.7060   -1.2220 c3        1 MOL     -0.263870
    132 O20         8.1690   -2.9820   -2.6960 oh        1 MOL     -0.615300
    133 H60         6.0200   -3.8450   -1.6140 hn        1 MOL      0.236130
    134 H61         7.6490   -2.9420    0.6110 h1        1 MOL      0.167933
    135 H62         9.4550   -2.6950   -1.2810 h1        1 MOL      0.084791
    136 H63         8.6550   -3.6850   -3.1390 ho        1 MOL      0.411603
    137 H64         7.9650   -5.3460   -1.3150 hc        1 MOL      0.081424
    138 H65         9.6280   -5.1070   -1.8660 hc        1 MOL      0.081424
    139 H66         9.2690   -4.8880   -0.2400 hc        1 MOL      0.081424
    140 N12         6.7850   -0.5600   -1.5130 n         1 MOL     -0.115369
    141 C43         6.6880    0.9030   -1.6940 c3        1 MOL     -0.199436
    142 C44         5.9920    1.5070   -0.4870 c         1 MOL      0.576773
    143 O21         6.4190    2.5910   -0.0870 o         1 MOL     -0.559762
    144 C45         6.0020    1.2850   -3.0780 c3        1 MOL     -0.065583
    145 C46         6.0020    2.7260   -3.4080 c3        1 MOL      0.001257
    146 C47         5.1920    3.0430   -4.6440 c3        1 MOL      0.034084
    147 C48         5.2010    4.4450   -5.2360 c3        1 MOL     -0.087682
    148 N13         4.8070    5.4740   -4.2590 n4        1 MOL     -0.234443
    149 H67         6.3320   -1.2070   -2.1490 hn        1 MOL      0.204329
    150 H68         7.6740    1.3420   -1.5480 h1        1 MOL      0.124356
    151 H69         4.9890    0.9060   -2.9830 hc        1 MOL      0.059687
    152 H70         6.4890    0.7510   -3.8890 hc        1 MOL      0.059687
    153 H71         7.0150    3.1260   -3.4970 hc        1 MOL      0.002670
    154 H72         5.5760    3.2750   -2.5660 hc        1 MOL      0.002670
    155 H73         4.1680    2.7500   -4.4120 hc        1 MOL      0.040131
    156 H74         5.4040    2.3480   -5.4590 hc        1 MOL      0.040131
    157 H75         4.5380    4.4030   -6.1000 hx        1 MOL      0.114719
    158 H76         6.1950    4.7110   -5.6010 hx        1 MOL      0.114719
    159 H77         4.0760    5.0830   -3.6950 hn        1 MOL      0.295002
    160 H78         5.5290    5.8000   -3.6290 hn        1 MOL      0.295002
    161 H79         4.4340    6.3410   -4.6140 hn        1 MOL      0.295002
    162 N14         4.9430    0.8520    0.0760 n         1 MOL      0.052422
    163 C49         4.1290    1.4110    1.1310 c3        1 MOL     -0.191426
    164 C50         4.7750    1.2460    2.5560 c         1 MOL      0.511542
    165 O22         4.9270    2.2200    3.2610 o         1 MOL     -0.538548
    166 C51         2.7380    0.8300    1.0760 c3        1 MOL     -0.009412
    167 C52         1.9920    1.4310   -0.1270 c3        1 MOL      0.075705
    168 C53         0.6530    0.6810   -0.3070 c         1 MOL      0.641447
    169 O23        -0.3720    1.3690   -0.3390 o         1 MOL     -0.721567
    170 O24         0.6460   -0.5150   -0.5960 o         1 MOL     -0.721567
    171 H80         4.7290   -0.0930   -0.1910 hn        1 MOL     -0.067180
    172 H81         4.0060    2.4770    0.9210 h1        1 MOL      0.045353
    173 H82         2.1980    1.1590    1.9670 hc        1 MOL      0.031212
    174 H83         2.7620   -0.2580    0.9570 hc        1 MOL      0.031212
    175 H84         2.6110    1.2540   -1.0100 hc        1 MOL     -0.046991
    176 H85         1.8740    2.5040   -0.0340 hc        1 MOL     -0.046991
    177 N15         5.3070    0.0760    2.9330 n         1 MOL     -0.266067
    178 C54         6.3650   -0.0620    3.9230 c3        1 MOL     -0.125408
    179 H86         7.3190    0.2190    3.4770 h1        1 MOL      0.081584
    180 H87         6.1570    0.5880    4.7720 h1        1 MOL      0.081584
    181 H88         6.4140   -1.0970    4.2620 h1        1 MOL      0.081584
    182 H89         5.1670   -0.6440    2.2320 hn        1 MOL      0.191649
    183 Ca1        -1.8100   -0.6030   -1.2440 Ca        1 MOL      1.742278
    184 O25        -1.0770   -2.7700   -2.7140 oh        1 MOL     -0.813198
    185 H90        -1.0410   -2.7630   -3.6740 ho        1 MOL      0.383804
    186 H91        -1.7480   -3.4260   -2.5070 ho        1 MOL      0.383804
    187 O26        -0.7570    0.1850   -3.5030 oh        1 MOL     -0.813198
    188 H92        -0.0960    0.5730   -4.0810 ho        1 MOL      0.383804
    189 H93        -1.5530    0.6710   -3.6920 ho        1 MOL      0.383804
@<TRIPOS>BOND
     1    1    2 1   
     2    1    4 1   
     3    1    5 1   
     4    1    6 1   
     5    2    3 2   
     6    2    7 1   
     7    7    8 1   
     8    7   15 1   
     9    8    9 1   
    10    8   11 1   
    11    8   16 1   
    12    9   10 2   
    13    9   19 1   
    14   11   12 1   
    15   11   17 1   
    16   11   18 1   
    17   12   13 1   
    18   12   14 1   
    19   19   20 1   
    20   19   28 1   
    21   20   21 1   
    22   20   23 1   
    23   20   29 1   
    24   21   22 2   
    25   21   41 1   
    26   23   24 1   
    27   23   30 1   
    28   23   31 1   
    29   24   25 1   
    30   24   32 1   
    31   24   33 1   
    32   25   26 1   
    33   25   34 1   
    34   25   35 1   
    35   26   27 1   
    36   26   36 1   
    37   26   37 1   
    38   27   38 1   
    39   27   39 1   
    40   27   40 1   
    41   41   42 1   
    42   41   49 1   
    43   42   43 1   
    44   42   45 1   
    45   42   50 1   
    46   43   44 2   
    47   43   53 1   
    48   45   46 1   
    49   45   51 1   
    50   45   52 1   
    51   46   47 1   
    52   46   48 1   
    53   53   54 1   
    54   53   57 1   
    55   54   55 1   
    56   54   58 1   
    57   54   59 1   
    58   55   56 2   
    59   55   60 1   
    60   60   61 1   
    61   60   68 1   
    62   61   62 1   
    63   61   64 1   
    64   61   69 1   
    65   62   63 2   
    66   62   72 1   
    67   64   65 1   
    68   64   70 1   
    69   64   71 1   
    70   65   66 1   
    71   65   67 1   
    72   72   73 1   
    73   72   76 1   
    74   73   74 1   
    75   73   77 1   
    76   73   78 1   
    77   74   75 2   
    78   74   79 1   
    79   79   80 1   
    80   79   86 1   
    81   80   81 1   
    82   80   83 1   
    83   80   87 1   
    84   81   82 2   
    85   81   93 1   
    86   83   84 1   
    87   83   85 1   
    88   83   88 1   
    89   84   90 1   
    90   84   91 1   
    91   84   92 1   
    92   85   89 1   
    93   93   94 1   
    94   93  101 1   
    95   94   95 1   
    96   94   97 1   
    97   94  102 1   
    98   95   96 2   
    99   95  112 1   
   100   97   98 1   
   101   97   99 1   
   102   97  103 1   
   103   98  100 1   
   104   98  104 1   
   105   98  105 1   
   106   99  106 1   
   107   99  107 1   
   108   99  108 1   
   109  100  109 1   
   110  100  110 1   
   111  100  111 1   
   112  112  113 1   
   113  112  119 1   
   114  113  114 1   
   115  113  116 1   
   116  113  120 1   
   117  114  115 2   
   118  114  126 1   
   119  116  117 1   
   120  116  118 1   
   121  116  121 1   
   122  117  123 1   
   123  117  124 1   
   124  117  125 1   
   125  118  122 1   
   126  126  127 1   
   127  126  133 1   
   128  127  128 1   
   129  127  130 1   
   130  127  134 1   
   131  128  129 2   
   132  128  140 1   
   133  130  131 1   
   134  130  132 1   
   135  130  135 1   
   136  131  137 1   
   137  131  138 1   
   138  131  139 1   
   139  132  136 1   
   140  140  141 1   
   141  140  149 1   
   142  141  142 1   
   143  141  144 1   
   144  141  150 1   
   145  142  143 2   
   146  142  162 1   
   147  144  145 1   
   148  144  151 1   
   149  144  152 1   
   150  145  146 1   
   151  145  153 1   
   152  145  154 1   
   153  146  147 1   
   154  146  155 1   
   155  146  156 1   
   156  147  148 1   
   157  147  157 1   
   158  147  158 1   
   159  148  159 1   
   160  148  160 1   
   161  148  161 1   
   162  162  163 1   
   163  162  171 1   
   164  163  164 1   
   165  163  166 1   
   166  163  172 1   
   167  164  165 2   
   168  164  177 1   
   169  166  167 1   
   170  166  173 1   
   171  166  174 1   
   172  167  168 1   
   173  167  175 1   
   174  167  176 1   
   175  168  169 1   
   176  168  170 1   
   177  177  178 1   
   178  177  182 1   
   179  178  179 1   
   180  178  180 1   
   181  178  181 1   
   182  184  185 1   
   183  184  186 1   
   184  187  188 1   
   185  187  189 1   
@<TRIPOS>SUBSTRUCTURE
     1 MOL         1 TEMP              0 ****  ****    0 ROOT
