@<TRIPOS>MOLECULE
MOL
  182   178     1     0     0
SMALL
resp


@<TRIPOS>ATOM
      1 C1          2.4340    2.5510    5.3300 c3        1 MOL     -0.258268
      2 C2          1.8690    2.2860    3.8940 c         1 MOL      0.628679
      3 O1          2.6520    1.9180    3.0260 o         1 MOL     -0.589831
      4 H1          1.6080    2.7340    6.0170 hc        1 MOL      0.065194
      5 H2          2.9980    1.6800    5.6650 hc        1 MOL      0.065194
      6 H3          3.0890    3.4220    5.3090 hc        1 MOL      0.065194
      7 N1          0.6230    2.5800    3.6690 n         1 MOL     -0.527689
      8 C3         -0.0710    2.3150    2.4910 c3        1 MOL     -0.003404
      9 C4          0.0210    3.7240    1.7850 c         1 MOL      0.415346
     10 O2         -0.6590    4.6120    2.2110 o         1 MOL     -0.504416
     11 C5         -1.5670    1.9960    2.8460 c3        1 MOL     -0.082736
     12 C6         -2.4270    1.6640    1.5950 c         1 MOL      0.849824
     13 O3         -1.8560    1.6790    0.4870 o         1 MOL     -0.774057
     14 O4         -3.6560    1.4020    1.7010 o         1 MOL     -0.774057
     15 H4          0.0750    2.7920    4.4950 hn        1 MOL      0.330238
     16 H5          0.4480    1.5140    1.9650 h1        1 MOL      0.057173
     17 H6         -1.9820    2.7890    3.4620 hc        1 MOL      0.026981
     18 H7         -1.5030    1.0510    3.3910 hc        1 MOL      0.026981
     19 N2          0.9370    3.8360    0.8130 n         1 MOL     -0.011035
     20 C7          1.2160    5.1370    0.1170 c3        1 MOL     -0.335807
     21 C8          0.1870    5.6280   -0.8560 c         1 MOL      0.541567
     22 O5         -0.1090    6.8360   -0.9560 o         1 MOL     -0.566583
     23 C9          2.5460    5.0250   -0.6540 c3        1 MOL     -0.095942
     24 C10         3.7210    4.5240    0.2130 c3        1 MOL     -0.000510
     25 C11         3.8760    5.2330    1.5260 c3        1 MOL      0.067586
     26 C12         4.1490    6.7370    1.3660 c3        1 MOL     -0.033304
     27 N3          3.8020    7.4370    2.6300 n4        1 MOL     -0.402536
     28 H8          1.3770    3.0240    0.4060 hn        1 MOL      0.298650
     29 H9          1.2890    5.9530    0.8420 h1        1 MOL      0.112363
     30 H10         2.8410    5.9970   -1.0470 hc        1 MOL      0.053278
     31 H11         2.4960    4.3680   -1.5160 hc        1 MOL      0.053278
     32 H12         4.6530    4.7180   -0.3210 hc        1 MOL      0.040178
     33 H13         3.5840    3.4760    0.4730 hc        1 MOL      0.040178
     34 H14         4.7670    4.8220    1.9990 hc        1 MOL      0.018154
     35 H15         3.1050    5.0330    2.2670 hc        1 MOL      0.018154
     36 H16         3.4180    7.1820    0.6980 hx        1 MOL      0.108987
     37 H17         5.0990    6.9290    0.8650 hx        1 MOL      0.108987
     38 H18         3.8730    8.4330    2.4450 hn        1 MOL      0.337139
     39 H19         2.9250    7.2110    3.0780 hn        1 MOL      0.337139
     40 H20         4.4930    7.2480    3.3380 hn        1 MOL      0.337139
     41 N4         -0.5590    4.7550   -1.5160 n         1 MOL     -0.383764
     42 C13        -1.8390    5.2040   -2.2450 c3        1 MOL      0.156747
     43 C14        -3.1550    5.0360   -1.4440 c         1 MOL      0.397222
     44 O6         -4.1400    5.6420   -1.8300 o         1 MOL     -0.520862
     45 C15        -2.0080    4.6360   -3.6450 c3        1 MOL     -0.213530
     46 C16        -2.0390    3.1040   -3.6860 c         1 MOL      0.781944
     47 O7         -2.4240    2.5550   -4.7450 o         1 MOL     -0.720108
     48 O8         -1.8520    2.4180   -2.6740 o         1 MOL     -0.720108
     49 H21        -0.4160    3.7600   -1.4120 hn        1 MOL      0.230799
     50 H22        -1.8780    6.2860   -2.4240 h1        1 MOL      0.078131
     51 H23        -1.2140    5.0080   -4.2940 hc        1 MOL      0.054817
     52 H24        -2.9630    5.0230   -4.0110 hc        1 MOL      0.054817
     53 N5         -3.1900    4.2120   -0.3880 n         1 MOL      0.042182
     54 C17        -4.3690    4.0950    0.5250 c3        1 MOL     -0.224687
     55 C18        -5.5190    3.3210   -0.0620 c         1 MOL      0.669785
     56 O9         -6.5410    3.9680   -0.4000 o         1 MOL     -0.589186
     57 H25        -2.3500    3.6710   -0.2440 hn        1 MOL     -0.041423
     58 H26        -4.7260    5.1140    0.6830 h1        1 MOL      0.092833
     59 H27        -4.0300    3.6780    1.4810 h1        1 MOL      0.092833
     60 N6         -5.3790    2.0370   -0.1380 n         1 MOL     -0.458118
     61 C19        -6.4010    1.1410   -0.7380 c3        1 MOL      0.059555
     62 C20        -6.7170   -0.0820    0.1180 c         1 MOL      0.284578
     63 O10        -7.2990   -1.0810   -0.2400 o         1 MOL     -0.413044
     64 C21        -5.8830    0.7920   -2.0940 c3        1 MOL     -0.172575
     65 C22        -4.8360   -0.2780   -2.0760 c         1 MOL      0.419776
     66 N7         -5.1380   -1.2960   -2.8160 n         1 MOL     -0.665745
     67 O11        -3.8150   -0.2930   -1.4380 o         1 MOL     -0.511978
     68 H28        -4.5120    1.6340    0.1960 hn        1 MOL      0.227632
     69 H29        -7.3500    1.6640   -0.8680 h1        1 MOL      0.120472
     70 H30        -5.4000    1.5840   -2.6540 hc        1 MOL      0.103357
     71 H31        -6.7910    0.4970   -2.6350 hc        1 MOL      0.103357
     72 H32        -6.0650   -1.3080   -3.2040 hn        1 MOL      0.346852
     73 H33        -4.4660   -2.0440   -2.8510 hn        1 MOL      0.346852
     74 N8         -6.2730   -0.0650    1.3810 n         1 MOL     -0.186932
     75 C23        -6.3750   -1.0980    2.3550 c3        1 MOL     -0.155611
     76 C24        -5.3130   -2.2020    2.2770 c         1 MOL      0.546693
     77 O12        -5.5350   -3.2870    2.8090 o         1 MOL     -0.532860
     78 H34        -5.9850    0.8660    1.6750 hn        1 MOL      0.257307
     79 H35        -7.3590   -1.5640    2.4290 h1        1 MOL      0.092664
     80 H36        -6.2110   -0.6630    3.3430 h1        1 MOL      0.092664
     81 N9         -4.2520   -1.9110    1.5710 n         1 MOL     -0.445565
     82 C25        -3.1820   -2.9160    1.3900 c3        1 MOL      0.104060
     83 C26        -1.7810   -2.2500    1.3830 c         1 MOL      0.460272
     84 O13        -1.4470   -1.3890    0.5880 o         1 MOL     -0.581672
     85 C27        -3.4360   -3.7230    0.1110 c3        1 MOL      0.006143
     86 C28        -4.5610   -4.7030    0.2220 ca        1 MOL     -0.044338
     87 C29        -5.8410   -4.4240   -0.3290 ca        1 MOL     -0.165380
     88 C30        -4.3270   -5.9950    0.7700 ca        1 MOL     -0.165380
     89 C31        -6.8480   -5.4280   -0.4880 ca        1 MOL     -0.213484
     90 C32        -5.3610   -7.0060    0.6440 ca        1 MOL     -0.213484
     91 C33        -6.5980   -6.7520    0.0360 ca        1 MOL      0.293196
     92 O14        -7.4500   -7.6680   -0.3800 oh        1 MOL     -0.417769
     93 H37        -4.2150   -0.9650    1.2210 hn        1 MOL      0.343332
     94 H38        -3.2200   -3.6100    2.2330 h1        1 MOL      0.053064
     95 H39        -2.5240   -4.2270   -0.2090 hc        1 MOL      0.041060
     96 H40        -3.6750   -3.1130   -0.7680 hc        1 MOL      0.041060
     97 H41        -6.0940   -3.4440   -0.6860 ha        1 MOL      0.132838
     98 H42        -3.3580   -6.1160    1.2360 ha        1 MOL      0.132838
     99 H43        -7.7450   -5.1600   -1.0300 ha        1 MOL      0.129260
    100 H44        -5.1110   -7.9940    1.0050 ha        1 MOL      0.129260
    101 H45        -7.1670   -8.4580    0.0830 ho        1 MOL      0.323374
    102 N10        -0.8550   -2.8650    2.0680 n         1 MOL     -0.437450
    103 C34         0.5210   -2.5610    2.0200 c3        1 MOL      0.050890
    104 C35         1.2610   -3.5810    1.1900 c         1 MOL      0.500500
    105 O15         1.3420   -4.7650    1.5270 o         1 MOL     -0.546662
    106 C36         1.0840   -2.4420    3.4530 c3        1 MOL      0.153249
    107 C37         0.3740   -1.2580    4.2080 c3        1 MOL      0.115584
    108 C38         2.6150   -2.1140    3.3920 c3        1 MOL     -0.482193
    109 C39         0.4020   -1.4230    5.7540 c3        1 MOL     -0.089298
    110 H46        -1.2370   -3.4320    2.8110 hn        1 MOL      0.280106
    111 H47         0.7060   -1.6130    1.5180 h1        1 MOL      0.089122
    112 H48         0.9210   -3.4200    3.8950 hc        1 MOL     -0.000828
    113 H49        -0.6890   -1.2320    3.9870 hc        1 MOL     -0.021304
    114 H50         0.8730   -0.3320    3.9130 hc        1 MOL     -0.021304
    115 H51         2.7360   -1.2650    2.7220 hc        1 MOL      0.125909
    116 H52         3.0090   -1.8840    4.3810 hc        1 MOL      0.125909
    117 H53         3.1560   -2.9660    2.9690 hc        1 MOL      0.125909
    118 H54         0.1240   -0.5430    6.3450 hc        1 MOL      0.012945
    119 H55        -0.3480   -2.1850    5.9560 hc        1 MOL      0.012945
    120 H56         1.3770   -1.7260    6.1330 hc        1 MOL      0.012945
    121 N11         1.7800   -3.1310   -0.0040 n         1 MOL     -0.217412
    122 C40         2.7320   -3.9760   -0.7940 c3        1 MOL     -0.152037
    123 C41         4.2080   -3.8890   -0.2860 c         1 MOL      0.582555
    124 O16         4.5810   -2.8900    0.3150 o         1 MOL     -0.430643
    125 C42         2.7090   -3.6500   -2.2840 c3        1 MOL      0.025485
    126 O17         2.8700   -2.2620   -2.3650 oh        1 MOL     -0.539782
    127 H57         1.6830   -2.1690   -0.2710 hn        1 MOL      0.287381
    128 H58         2.5420   -5.0390   -0.7160 h1        1 MOL      0.067008
    129 H59         1.7420   -3.8630   -2.7630 h1        1 MOL      0.066059
    130 H60         3.5480   -4.1210   -2.7760 h1        1 MOL      0.066059
    131 H61         2.2540   -1.6870   -1.9070 ho        1 MOL      0.375018
    132 N12         5.0090   -4.8930   -0.6320 n         1 MOL     -0.552085
    133 C43         6.4720   -4.8430   -0.4540 c3        1 MOL      0.225617
    134 C44         7.1900   -3.5910   -1.0080 c         1 MOL      0.446108
    135 O18         8.0790   -3.0620   -0.4060 o         1 MOL     -0.511203
    136 C45         7.1990   -6.1190   -0.8910 c3        1 MOL     -0.409886
    137 H62         4.6060   -5.6510   -1.1680 hn        1 MOL      0.327526
    138 H63         6.6870   -4.7390    0.6110 h1        1 MOL      0.055404
    139 H64         8.2400   -5.8500   -0.7010 hc        1 MOL      0.121240
    140 H65         6.9730   -6.9660   -0.2330 hc        1 MOL      0.121240
    141 H66         7.0120   -6.2610   -1.9590 hc        1 MOL      0.121240
    142 N13         6.8110   -3.1720   -2.2180 n         1 MOL     -0.392503
    143 C46         7.3650   -2.0250   -2.8940 c3        1 MOL      0.144263
    144 C47         6.8930   -0.7030   -2.2150 c         1 MOL      0.415481
    145 O19         7.6770    0.2370   -2.3750 o         1 MOL     -0.531826
    146 C48         6.9200   -2.1990   -4.3620 c3        1 MOL     -0.383615
    147 H67         6.0600   -3.6810   -2.6750 hn        1 MOL      0.289221
    148 H68         8.4560   -1.9760   -2.8520 h1        1 MOL      0.101949
    149 H69         5.8500   -2.4210   -4.4190 hc        1 MOL      0.105798
    150 H70         7.1650   -1.2930   -4.9170 hc        1 MOL      0.105798
    151 H71         7.4330   -3.0590   -4.7760 hc        1 MOL      0.105798
    152 N14         5.8230   -0.6880   -1.4430 n         1 MOL     -0.059614
    153 C49         5.3980    0.3790   -0.5270 c3        1 MOL     -0.156650
    154 C50         6.2590    0.3960    0.7240 c         1 MOL      0.479363
    155 O20         6.7590    1.4890    1.1040 o         1 MOL     -0.561119
    156 C51         3.9170    0.3740   -0.2280 c3        1 MOL      0.004138
    157 C52         3.1210    0.9450   -1.3910 c3        1 MOL      0.013787
    158 C53         1.6630    0.6700   -1.1270 c         1 MOL      0.897462
    159 O21         0.8860    1.5560   -0.7570 o         1 MOL     -0.840353
    160 O22         1.2620   -0.5300   -1.1780 o         1 MOL     -0.840353
    161 H72         5.3150   -1.5590   -1.3000 hn        1 MOL      0.017440
    162 H73         5.6360    1.2670   -1.1210 h1        1 MOL      0.091317
    163 H74         3.6560    0.9960    0.6170 hc        1 MOL      0.001449
    164 H75         3.6650   -0.6730   -0.0320 hc        1 MOL      0.001449
    165 H76         3.3350    0.4650   -2.3470 hc        1 MOL     -0.018113
    166 H77         3.2950    2.0160   -1.3540 hc        1 MOL     -0.018113
    167 N15         6.4810   -0.7480    1.3810 n         1 MOL     -0.136948
    168 C54         7.3320   -0.7900    2.6050 c3        1 MOL     -0.229328
    169 H78         6.7050   -0.6570    3.4870 h1        1 MOL      0.102589
    170 H79         7.8400   -1.7520    2.6620 h1        1 MOL      0.102589
    171 H80         8.0700    0.0100    2.5620 h1        1 MOL      0.102589
    172 H81         6.0500   -1.5940    1.0440 hn        1 MOL      0.173422
    173 Ca1        -1.2320    0.2110   -1.5440 Ca        1 MOL      1.821344
    174 O23         0.4230    0.9360   -3.9330 oh        1 MOL     -0.863572
    175 H82        -0.0770    0.7800   -4.7320 ho        1 MOL      0.411785
    176 H83         0.9470    1.7160   -4.1220 ho        1 MOL      0.411785
    177 O24        -1.7420   -2.3100   -2.3410 oh        1 MOL     -0.863572
    178 H84        -1.3960   -3.1900   -2.2460 ho        1 MOL      0.411785
    179 H85        -2.2130   -2.3280   -3.1740 ho        1 MOL      0.411785
    180 O25        -2.4820    0.0720   -4.1670 oh        1 MOL     -0.863572
    181 H86        -3.2830   -0.0790   -4.6700 ho        1 MOL      0.411785
    182 H87        -2.3880    1.0200   -4.1500 ho        1 MOL      0.411785
@<TRIPOS>BOND
     1    1    2 1   
     2    1    4 1   
     3    1    5 1   
     4    1    6 1   
     5    2    3 2   
     6    2    7 1   
     7    7    8 1   
     8    7   15 1   
     9    8    9 1   
    10    8   11 1   
    11    8   16 1   
    12    9   10 2   
    13    9   19 1   
    14   11   12 1   
    15   11   17 1   
    16   11   18 1   
    17   12   13 1   
    18   12   14 1   
    19   19   20 1   
    20   19   28 1   
    21   20   21 1   
    22   20   23 1   
    23   20   29 1   
    24   21   22 2   
    25   21   41 1   
    26   23   24 1   
    27   23   30 1   
    28   23   31 1   
    29   24   25 1   
    30   24   32 1   
    31   24   33 1   
    32   25   26 1   
    33   25   34 1   
    34   25   35 1   
    35   26   27 1   
    36   26   36 1   
    37   26   37 1   
    38   27   38 1   
    39   27   39 1   
    40   27   40 1   
    41   41   42 1   
    42   41   49 1   
    43   42   43 1   
    44   42   45 1   
    45   42   50 1   
    46   43   44 2   
    47   43   53 1   
    48   45   46 1   
    49   45   51 1   
    50   45   52 1   
    51   46   47 1   
    52   46   48 1   
    53   53   54 1   
    54   53   57 1   
    55   54   55 1   
    56   54   58 1   
    57   54   59 1   
    58   55   56 2   
    59   55   60 1   
    60   60   61 1   
    61   60   68 1   
    62   61   62 1   
    63   61   64 1   
    64   61   69 1   
    65   62   63 2   
    66   62   74 1   
    67   64   65 1   
    68   64   70 1   
    69   64   71 1   
    70   65   66 1   
    71   65   67 2   
    72   66   72 1   
    73   66   73 1   
    74   74   75 1   
    75   74   78 1   
    76   75   76 1   
    77   75   79 1   
    78   75   80 1   
    79   76   77 2   
    80   76   81 1   
    81   81   82 1   
    82   81   93 1   
    83   82   83 1   
    84   82   85 1   
    85   82   94 1   
    86   83   84 2   
    87   83  102 1   
    88   85   86 1   
    89   85   95 1   
    90   85   96 1   
    91   86   87 ar  
    92   86   88 ar  
    93   87   89 ar  
    94   87   97 1   
    95   88   90 ar  
    96   88   98 1   
    97   89   91 ar  
    98   89   99 1   
    99   90   91 ar  
   100   90  100 1   
   101   91   92 1   
   102   92  101 1   
   103  102  103 1   
   104  102  110 1   
   105  103  104 1   
   106  103  106 1   
   107  103  111 1   
   108  104  105 2   
   109  104  121 1   
   110  106  107 1   
   111  106  108 1   
   112  106  112 1   
   113  107  109 1   
   114  107  113 1   
   115  107  114 1   
   116  108  115 1   
   117  108  116 1   
   118  108  117 1   
   119  109  118 1   
   120  109  119 1   
   121  109  120 1   
   122  121  122 1   
   123  121  127 1   
   124  122  123 1   
   125  122  125 1   
   126  122  128 1   
   127  123  124 2   
   128  123  132 1   
   129  125  126 1   
   130  125  129 1   
   131  125  130 1   
   132  126  131 1   
   133  132  133 1   
   134  132  137 1   
   135  133  134 1   
   136  133  136 1   
   137  133  138 1   
   138  134  135 2   
   139  134  142 1   
   140  136  139 1   
   141  136  140 1   
   142  136  141 1   
   143  142  143 1   
   144  142  147 1   
   145  143  144 1   
   146  143  146 1   
   147  143  148 1   
   148  144  145 2   
   149  144  152 1   
   150  146  149 1   
   151  146  150 1   
   152  146  151 1   
   153  152  153 1   
   154  152  161 1   
   155  153  154 1   
   156  153  156 1   
   157  153  162 1   
   158  154  155 2   
   159  154  167 1   
   160  156  157 1   
   161  156  163 1   
   162  156  164 1   
   163  157  158 1   
   164  157  165 1   
   165  157  166 1   
   166  158  159 1   
   167  158  160 1   
   168  167  168 1   
   169  167  172 1   
   170  168  169 1   
   171  168  170 1   
   172  168  171 1   
   173  174  175 1   
   174  174  176 1   
   175  177  178 1   
   176  177  179 1   
   177  180  181 1   
   178  180  182 1   
@<TRIPOS>SUBSTRUCTURE
     1 MOL         1 TEMP              0 ****  ****    0 ROOT
