@<TRIPOS>MOLECULE
MOL
  189   185     1     0     0
SMALL
resp


@<TRIPOS>ATOM
      1 C1          0.2540    3.2400    5.2980 c3        1 MOL     -0.421640
      2 C2         -0.1140    2.7050    3.8780 c         1 MOL      0.527524
      3 O1          0.6600    2.8160    3.0150 o         1 MOL     -0.537660
      4 H1          1.3340    3.3680    5.3690 hc        1 MOL      0.108721
      5 H2         -0.2370    4.2000    5.4640 hc        1 MOL      0.108721
      6 H3         -0.0780    2.5270    6.0540 hc        1 MOL      0.108721
      7 N1         -1.2840    2.1070    3.6450 n         1 MOL     -0.375318
      8 C3         -1.9810    1.7310    2.3810 c3        1 MOL      0.066215
      9 C4         -2.5050    2.9910    1.6640 c         1 MOL      0.452234
     10 O2         -3.5980    3.4000    2.0390 o         1 MOL     -0.485751
     11 C5         -3.1530    0.8160    2.7930 c3        1 MOL     -0.147251
     12 C6         -4.0570    0.6130    1.5580 c         1 MOL      0.760151
     13 O3         -3.5490    0.6380    0.3830 o         1 MOL     -0.637040
     14 O4         -5.2590    0.3360    1.7500 o         1 MOL     -0.637040
     15 H4         -1.8570    2.0240    4.4820 hn        1 MOL      0.278875
     16 H5         -1.2990    1.1690    1.7400 h1        1 MOL     -0.074238
     17 H6         -3.6600    1.2620    3.6440 hc        1 MOL      0.028634
     18 H7         -2.7470   -0.1630    3.0730 hc        1 MOL      0.028634
     19 N2         -1.5870    3.7240    1.0010 n         1 MOL     -0.278402
     20 C7         -1.7300    5.1320    0.5890 c3        1 MOL     -0.130348
     21 C8         -2.6000    5.2840   -0.6560 c         1 MOL      0.482504
     22 O5         -3.2550    6.2890   -0.7760 o         1 MOL     -0.561941
     23 C9         -0.3440    5.8150    0.3390 c3        1 MOL     -0.320328
     24 C10         0.3590    6.0400    1.7020 c3        1 MOL      0.452963
     25 C11         1.5130    7.0090    1.6790 c3        1 MOL     -0.062043
     26 C12         2.2130    7.1240    3.0730 c3        1 MOL     -0.138732
     27 N3          1.3190    7.6680    4.1200 n4        1 MOL     -0.281362
     28 H8         -0.7320    3.2100    0.8180 hn        1 MOL      0.289363
     29 H9         -2.2440    5.7300    1.3400 h1        1 MOL      0.118669
     30 H10        -0.5910    6.8060   -0.0480 hc        1 MOL      0.099439
     31 H11         0.2390    5.3570   -0.4550 hc        1 MOL      0.099439
     32 H12         0.7750    5.1050    2.0860 hc        1 MOL     -0.087105
     33 H13        -0.4210    6.3930    2.3790 hc        1 MOL     -0.087105
     34 H14         1.1350    7.9790    1.3540 hc        1 MOL      0.025296
     35 H15         2.2010    6.6830    0.8890 hc        1 MOL      0.025296
     36 H16         3.0310    7.8210    2.9190 hx        1 MOL      0.138769
     37 H17         2.6160    6.1670    3.4090 hx        1 MOL      0.138769
     38 H18         1.0670    8.6410    4.0480 hn        1 MOL      0.307654
     39 H19         0.4220    7.2050    4.2100 hn        1 MOL      0.307654
     40 H20         1.7570    7.5320    5.0230 hn        1 MOL      0.307654
     41 N4         -2.6990    4.3350   -1.5830 n         1 MOL     -0.354884
     42 C13        -3.6040    4.2770   -2.7210 c3        1 MOL      0.305510
     43 C14        -5.0480    3.7730   -2.3450 c         1 MOL      0.361744
     44 O6         -5.9930    4.0640   -3.0950 o         1 MOL     -0.515038
     45 C15        -3.0150    3.5890   -4.0020 c3        1 MOL     -0.574038
     46 C16        -2.1180    2.4310   -3.7310 c         1 MOL      0.824037
     47 O7         -2.5330    1.6840   -2.8030 o         1 MOL     -0.718007
     48 O8         -1.0090    2.2320   -4.2760 o         1 MOL     -0.718007
     49 H21        -2.1870    3.4840   -1.4130 hn        1 MOL      0.288067
     50 H22        -3.8080    5.2910   -3.0760 h1        1 MOL      0.032306
     51 H23        -2.4270    4.4160   -4.3860 hc        1 MOL      0.155738
     52 H24        -3.7930    3.1120   -4.5970 hc        1 MOL      0.155738
     53 N5         -5.1390    2.9190   -1.2700 n         1 MOL      0.031390
     54 C17        -6.3530    2.3220   -0.7620 c3        1 MOL     -0.153936
     55 C18        -6.9620    1.1240   -1.5080 c         1 MOL      0.616431
     56 O9         -7.5510    1.2090   -2.6010 o         1 MOL     -0.533656
     57 H25        -4.2730    2.5860   -0.8680 hn        1 MOL     -0.038616
     58 H26        -7.1370    3.0740   -0.8190 h1        1 MOL      0.058271
     59 H27        -6.2800    2.0710    0.2880 h1        1 MOL      0.058271
     60 N6         -6.7070   -0.0540   -0.9810 n         1 MOL     -0.438088
     61 C19        -7.1840   -1.3380   -1.4730 c3        1 MOL      0.043290
     62 C20        -7.2750   -2.3070   -0.2720 c         1 MOL      0.414484
     63 O10        -7.8990   -3.3470   -0.3710 o         1 MOL     -0.513556
     64 C21        -6.2310   -1.9090   -2.6300 c3        1 MOL     -0.110974
     65 C22        -4.8180   -1.7710   -2.3420 c         1 MOL      0.800435
     66 O11        -4.2660   -2.1550   -1.2560 o         1 MOL     -0.760614
     67 O12        -4.0540   -1.2810   -3.2250 o         1 MOL     -0.760614
     68 H28        -6.2160    0.0400   -0.1000 hn        1 MOL      0.151964
     69 H29        -8.1650   -1.2380   -1.9320 h1        1 MOL      0.086868
     70 H30        -6.4550   -1.4160   -3.5720 hc        1 MOL      0.045297
     71 H31        -6.4170   -2.9700   -2.7240 hc        1 MOL      0.045297
     72 N7         -6.6870   -1.9020    0.9190 n         1 MOL     -0.198235
     73 C23        -6.6080   -2.6380    2.1320 c3        1 MOL     -0.211612
     74 C24        -5.4090   -3.6140    2.1980 c         1 MOL      0.506068
     75 O13        -5.4400   -4.5760    2.9750 o         1 MOL     -0.590280
     76 H32        -6.3300   -0.9640    0.9300 hn        1 MOL      0.248150
     77 H33        -7.5420   -3.1810    2.2760 h1        1 MOL      0.104941
     78 H34        -6.4630   -1.9280    2.9500 h1        1 MOL      0.104941
     79 N8         -4.4780   -3.5190    1.2860 n         1 MOL     -0.017922
     80 C25        -3.1820   -4.3070    1.3240 c3        1 MOL     -0.375597
     81 C26        -1.9120   -3.4000    1.3240 c         1 MOL      0.634609
     82 O14        -1.9710   -2.2870    0.8500 o         1 MOL     -0.528252
     83 C27        -3.2390   -5.3040    0.2020 c3        1 MOL      0.545994
     84 C28        -4.4120   -6.2210    0.4000 c3        1 MOL     -0.442056
     85 O15        -3.3520   -4.7220   -1.0900 oh        1 MOL     -0.651210
     86 H35        -4.4980   -2.7070    0.6850 hn        1 MOL      0.071045
     87 H36        -3.1370   -4.9280    2.2230 h1        1 MOL      0.119650
     88 H37        -2.3320   -5.9020    0.2440 h1        1 MOL     -0.034203
     89 H38        -3.8170   -3.8920   -0.9330 ho        1 MOL      0.388175
     90 H39        -4.5810   -6.4610    1.4490 hc        1 MOL      0.109473
     91 H40        -5.2640   -5.6930   -0.0500 hc        1 MOL      0.109473
     92 H41        -4.2740   -7.1380   -0.1730 hc        1 MOL      0.109473
     93 N9         -0.8680   -3.9930    1.9170 n         1 MOL     -0.539219
     94 C29         0.4960   -3.3870    1.8250 c3        1 MOL      0.210849
     95 C30         1.3810   -4.1140    0.7980 c         1 MOL      0.369456
     96 O16         1.6520   -5.2820    1.0050 o         1 MOL     -0.519931
     97 C31         1.0440   -3.3170    3.2760 c3        1 MOL      0.070826
     98 C32         0.2960   -2.3430    4.1640 c3        1 MOL     -0.045786
     99 C33         2.4980   -3.0270    3.5430 c3        1 MOL     -0.116052
    100 C34         0.3230   -0.8930    3.9170 c3        1 MOL      0.101450
    101 H42        -1.0530   -4.7930    2.5120 hn        1 MOL      0.311865
    102 H43         0.4350   -2.3300    1.5940 h1        1 MOL     -0.043617
    103 H44         0.9490   -4.3170    3.7060 hc        1 MOL      0.011242
    104 H45         0.5510   -2.5390    5.2050 hc        1 MOL     -0.004168
    105 H46        -0.7510   -2.6600    4.2050 hc        1 MOL     -0.004168
    106 H47         2.8170   -3.0290    4.5810 hc        1 MOL      0.008102
    107 H48         3.1320   -3.7330    2.9970 hc        1 MOL      0.008102
    108 H49         2.7940   -2.0590    3.1610 hc        1 MOL      0.008102
    109 H50         1.3610   -0.5860    4.0730 hc        1 MOL     -0.009109
    110 H51        -0.0810   -0.6620    2.9280 hc        1 MOL     -0.009109
    111 H52        -0.2930   -0.3160    4.6100 hc        1 MOL     -0.009109
    112 N10         1.9340   -3.3070   -0.1400 n         1 MOL     -0.138411
    113 C35         2.9700   -3.6520   -1.1750 c3        1 MOL     -0.065913
    114 C36         4.3700   -3.2710   -0.6130 c         1 MOL      0.427642
    115 O17         4.5270   -2.6450    0.4660 o         1 MOL     -0.407424
    116 C37         2.7170   -2.8510   -2.4360 c3        1 MOL      0.320639
    117 C38         1.5500   -3.4520   -3.2130 c3        1 MOL     -0.273890
    118 O18         2.2730   -1.4760   -2.3630 oh        1 MOL     -0.615026
    119 H53         1.5780   -2.3670   -0.1730 hn        1 MOL      0.182723
    120 H54         3.0020   -4.7100   -1.4390 h1        1 MOL      0.096046
    121 H55         3.6520   -2.8570   -2.9780 h1        1 MOL     -0.009322
    122 H56         1.5980   -1.3750   -1.6960 ho        1 MOL      0.352541
    123 H57         1.4650   -2.9690   -4.1880 hc        1 MOL      0.068140
    124 H58         1.8160   -4.4980   -3.3530 hc        1 MOL      0.068140
    125 H59         0.6270   -3.3470   -2.6490 hc        1 MOL      0.068140
    126 N11         5.4150   -3.5590   -1.3430 n         1 MOL     -0.369092
    127 C39         6.7730   -3.4540   -0.8350 c3        1 MOL     -0.010298
    128 C40         7.1250   -2.0510   -0.3960 c         1 MOL      0.292543
    129 O19         7.5310   -1.8110    0.7460 o         1 MOL     -0.435132
    130 C41         7.8920   -3.8910   -1.7490 c3        1 MOL      0.369050
    131 C42         8.2260   -5.3690   -1.5450 c3        1 MOL     -0.372911
    132 O20         7.6150   -3.7800   -3.0940 oh        1 MOL     -0.546628
    133 H60         5.3120   -3.9450   -2.2780 hn        1 MOL      0.259850
    134 H61         6.9220   -3.9900    0.1010 h1        1 MOL      0.126136
    135 H62         8.8280   -3.4340   -1.4510 h1        1 MOL      0.025243
    136 H63         7.9170   -2.9010   -3.3390 ho        1 MOL      0.341168
    137 H64         8.2530   -5.5760   -0.4810 hc        1 MOL      0.100860
    138 H65         7.4550   -5.9800   -2.0260 hc        1 MOL      0.100860
    139 H66         9.1560   -5.5670   -2.0840 hc        1 MOL      0.100860
    140 N12         6.7620   -1.0340   -1.2420 n         1 MOL     -0.405045
    141 C43         6.9850    0.3820   -0.9510 c3        1 MOL      0.007984
    142 C44         6.1940    0.8380    0.2300 c         1 MOL      0.404737
    143 O21         6.6370    1.7470    0.9800 o         1 MOL     -0.541282
    144 C45         6.6910    1.2260   -2.1290 c3        1 MOL     -0.087353
    145 C46         7.0190    2.6980   -1.9110 c3        1 MOL     -0.121219
    146 C47         7.2010    3.3990   -3.3230 c3        1 MOL     -0.007177
    147 C48         7.8420    4.8110   -3.0180 c3        1 MOL      0.125340
    148 N13         8.2620    5.5440   -4.2110 n4        1 MOL     -0.364973
    149 H67         6.4180   -1.2770   -2.1530 hn        1 MOL      0.267435
    150 H68         7.9780    0.7100   -0.6450 h1        1 MOL      0.102145
    151 H69         5.6110    1.1320   -2.2400 hc        1 MOL      0.055418
    152 H70         7.1440    0.8700   -3.0590 hc        1 MOL      0.055418
    153 H71         7.8790    2.7950   -1.2470 hc        1 MOL      0.086542
    154 H72         6.0990    3.1470   -1.5400 hc        1 MOL      0.086542
    155 H73         6.2210    3.4500   -3.7800 hc        1 MOL      0.031712
    156 H74         7.9280    2.8800   -3.9410 hc        1 MOL      0.031712
    157 H75         8.7340    4.5080   -2.4550 hx        1 MOL      0.047194
    158 H76         7.2750    5.3660   -2.2690 hx        1 MOL      0.047194
    159 H77         8.7220    6.3920   -3.9390 hn        1 MOL      0.307138
    160 H78         9.0020    5.0510   -4.7020 hn        1 MOL      0.307138
    161 H79         7.5180    5.7730   -4.8630 hn        1 MOL      0.307138
    162 N14         4.9130    0.3580    0.3690 n         1 MOL     -0.204446
    163 C49         4.0890    0.7520    1.5620 c3        1 MOL     -0.239675
    164 C50         4.6110    0.1950    2.8630 c         1 MOL      0.557495
    165 O22         4.5240    0.8790    3.8590 o         1 MOL     -0.569283
    166 C51         2.5940    0.4470    1.4530 c3        1 MOL      0.100675
    167 C52         2.0530    0.9780    0.1150 c3        1 MOL     -0.190798
    168 C53         0.6460    0.3890   -0.1870 c         1 MOL      0.985608
    169 O23         0.4520   -0.8380   -0.4850 o         1 MOL     -0.813968
    170 O24        -0.3060    1.2020   -0.3900 o         1 MOL     -0.813968
    171 H80         4.5570   -0.3060   -0.3020 hn        1 MOL      0.218785
    172 H81         4.1180    1.8310    1.4420 h1        1 MOL      0.121886
    173 H82         2.0390    0.8790    2.2890 hc        1 MOL      0.059057
    174 H83         2.5380   -0.6310    1.3950 hc        1 MOL      0.059057
    175 H84         2.5450    0.6560   -0.7900 hc        1 MOL      0.029917
    176 H85         1.9690    2.0630    0.2290 hc        1 MOL      0.029917
    177 N15         5.4090   -0.9370    2.7700 n         1 MOL      0.016213
    178 C54         6.2030   -1.4270    3.8710 c3        1 MOL     -0.332747
    179 H86         7.2440   -1.1380    3.7240 h1        1 MOL      0.111472
    180 H87         5.8360   -0.9990    4.8030 h1        1 MOL      0.111472
    181 H88         6.1310   -2.5140    3.9160 h1        1 MOL      0.111472
    182 H89         5.4660   -1.2880    1.8300 hn        1 MOL      0.070950
    183 Ca1        -2.1320   -0.6030   -1.5120 Ca        1 MOL      1.767973
    184 O25        -0.9190   -0.3890   -3.9570 oh        1 MOL     -0.836097
    185 H90        -0.9680    0.5550   -4.0380 ho        1 MOL      0.399701
    186 H91        -1.0420   -0.7210   -4.8430 ho        1 MOL      0.399701
    187 O26        -1.9140   -3.1130   -2.6530 oh        1 MOL     -0.836097
    188 H92        -2.3070   -3.3300   -3.5080 ho        1 MOL      0.399701
    189 H93        -2.3660   -3.6670   -2.0340 ho        1 MOL      0.399701
@<TRIPOS>BOND
     1    1    2 1   
     2    1    4 1   
     3    1    5 1   
     4    1    6 1   
     5    2    3 2   
     6    2    7 1   
     7    7    8 1   
     8    7   15 1   
     9    8    9 1   
    10    8   11 1   
    11    8   16 1   
    12    9   10 2   
    13    9   19 1   
    14   11   12 1   
    15   11   17 1   
    16   11   18 1   
    17   12   13 1   
    18   12   14 1   
    19   19   20 1   
    20   19   28 1   
    21   20   21 1   
    22   20   23 1   
    23   20   29 1   
    24   21   22 2   
    25   21   41 1   
    26   23   24 1   
    27   23   30 1   
    28   23   31 1   
    29   24   25 1   
    30   24   32 1   
    31   24   33 1   
    32   25   26 1   
    33   25   34 1   
    34   25   35 1   
    35   26   27 1   
    36   26   36 1   
    37   26   37 1   
    38   27   38 1   
    39   27   39 1   
    40   27   40 1   
    41   41   42 1   
    42   41   49 1   
    43   42   43 1   
    44   42   45 1   
    45   42   50 1   
    46   43   44 2   
    47   43   53 1   
    48   45   46 1   
    49   45   51 1   
    50   45   52 1   
    51   46   47 1   
    52   46   48 1   
    53   53   54 1   
    54   53   57 1   
    55   54   55 1   
    56   54   58 1   
    57   54   59 1   
    58   55   56 2   
    59   55   60 1   
    60   60   61 1   
    61   60   68 1   
    62   61   62 1   
    63   61   64 1   
    64   61   69 1   
    65   62   63 2   
    66   62   72 1   
    67   64   65 1   
    68   64   70 1   
    69   64   71 1   
    70   65   66 1   
    71   65   67 1   
    72   72   73 1   
    73   72   76 1   
    74   73   74 1   
    75   73   77 1   
    76   73   78 1   
    77   74   75 2   
    78   74   79 1   
    79   79   80 1   
    80   79   86 1   
    81   80   81 1   
    82   80   83 1   
    83   80   87 1   
    84   81   82 2   
    85   81   93 1   
    86   83   84 1   
    87   83   85 1   
    88   83   88 1   
    89   84   90 1   
    90   84   91 1   
    91   84   92 1   
    92   85   89 1   
    93   93   94 1   
    94   93  101 1   
    95   94   95 1   
    96   94   97 1   
    97   94  102 1   
    98   95   96 2   
    99   95  112 1   
   100   97   98 1   
   101   97   99 1   
   102   97  103 1   
   103   98  100 1   
   104   98  104 1   
   105   98  105 1   
   106   99  106 1   
   107   99  107 1   
   108   99  108 1   
   109  100  109 1   
   110  100  110 1   
   111  100  111 1   
   112  112  113 1   
   113  112  119 1   
   114  113  114 1   
   115  113  116 1   
   116  113  120 1   
   117  114  115 2   
   118  114  126 1   
   119  116  117 1   
   120  116  118 1   
   121  116  121 1   
   122  117  123 1   
   123  117  124 1   
   124  117  125 1   
   125  118  122 1   
   126  126  127 1   
   127  126  133 1   
   128  127  128 1   
   129  127  130 1   
   130  127  134 1   
   131  128  129 2   
   132  128  140 1   
   133  130  131 1   
   134  130  132 1   
   135  130  135 1   
   136  131  137 1   
   137  131  138 1   
   138  131  139 1   
   139  132  136 1   
   140  140  141 1   
   141  140  149 1   
   142  141  142 1   
   143  141  144 1   
   144  141  150 1   
   145  142  143 2   
   146  142  162 1   
   147  144  145 1   
   148  144  151 1   
   149  144  152 1   
   150  145  146 1   
   151  145  153 1   
   152  145  154 1   
   153  146  147 1   
   154  146  155 1   
   155  146  156 1   
   156  147  148 1   
   157  147  157 1   
   158  147  158 1   
   159  148  159 1   
   160  148  160 1   
   161  148  161 1   
   162  162  163 1   
   163  162  171 1   
   164  163  164 1   
   165  163  166 1   
   166  163  172 1   
   167  164  165 2   
   168  164  177 1   
   169  166  167 1   
   170  166  173 1   
   171  166  174 1   
   172  167  168 1   
   173  167  175 1   
   174  167  176 1   
   175  168  169 1   
   176  168  170 1   
   177  177  178 1   
   178  177  182 1   
   179  178  179 1   
   180  178  180 1   
   181  178  181 1   
   182  184  185 1   
   183  184  186 1   
   184  187  188 1   
   185  187  189 1   
@<TRIPOS>SUBSTRUCTURE
     1 MOL         1 TEMP              0 ****  ****    0 ROOT
