@<TRIPOS>MOLECULE
MOL
  175   173     1     0     0
SMALL
resp


@<TRIPOS>ATOM
      1 C1          0.2040    3.3190    5.5180 c3        1 MOL     -0.320121
      2 C2         -0.4100    3.0790    4.1650 c         1 MOL      0.684771
      3 O1          0.2330    3.4810    3.1260 o         1 MOL     -0.612874
      4 H1         -0.5350    3.7800    6.1740 hc        1 MOL      0.079218
      5 H2          0.5260    2.3690    5.9450 hc        1 MOL      0.079218
      6 H3          1.0630    3.9810    5.4160 hc        1 MOL      0.079218
      7 N1         -1.5890    2.4920    4.0630 n         1 MOL     -0.538999
      8 C3         -2.2350    2.1820    2.7950 c3        1 MOL      0.238989
      9 C4         -2.9560    3.3790    2.1610 c         1 MOL      0.383314
     10 O2         -4.0140    3.8670    2.6310 o         1 MOL     -0.576118
     11 C5         -3.0700    0.8750    3.0550 c3        1 MOL     -0.141170
     12 C6         -3.9420    0.5060    1.8280 c         1 MOL      0.699240
     13 O3         -3.3670    0.7500    0.7040 o         1 MOL     -0.650316
     14 O4         -4.9890   -0.1090    2.0200 o         1 MOL     -0.650316
     15 H4         -2.0550    2.0940    4.8640 hn        1 MOL      0.292011
     16 H5         -1.5350    1.8670    2.0280 h1        1 MOL     -0.012588
     17 H6         -3.7850    1.0980    3.8480 hc        1 MOL      0.013101
     18 H7         -2.4420    0.0190    3.3350 hc        1 MOL      0.013101
     19 N2         -2.3610    3.9310    1.1230 n         1 MOL     -0.137837
     20 C7         -2.5850    5.2710    0.6080 c3        1 MOL      0.179106
     21 C8         -3.4020    5.3670   -0.7280 c         1 MOL      0.371652
     22 O5         -3.7990    6.5040   -0.9910 o         1 MOL     -0.568850
     23 C9         -1.2770    6.0010    0.5820 c3        1 MOL     -0.269021
     24 H8         -1.4610    3.5920    0.8200 hn        1 MOL      0.225038
     25 H9         -3.0950    5.8050    1.4110 h1        1 MOL      0.035516
     26 H10        -0.5390    5.3800    0.0920 hc        1 MOL      0.065382
     27 H11        -1.3960    6.9080   -0.0130 hc        1 MOL      0.065382
     28 H12        -0.9540    6.3370    1.5640 hc        1 MOL      0.065382
     29 N3         -3.6970    4.2630   -1.3870 n         1 MOL     -0.145653
     30 C10        -4.7830    4.0540   -2.3520 c3        1 MOL      0.014132
     31 C11        -5.9380    3.2470   -1.6880 c         1 MOL      0.407254
     32 O6         -7.0280    3.3230   -2.2340 o         1 MOL     -0.561900
     33 C12        -4.2110    3.4280   -3.6200 c3        1 MOL     -0.081301
     34 C13        -3.4540    2.0410   -3.5560 c         1 MOL      0.668850
     35 O7         -2.8590    1.6690   -4.5490 o         1 MOL     -0.654702
     36 O8         -3.5130    1.4040   -2.4590 o         1 MOL     -0.654702
     37 H13        -3.0450    3.5120   -1.1950 hn        1 MOL      0.156289
     38 H14        -5.1010    5.0210   -2.7310 h1        1 MOL      0.093322
     39 H15        -3.5670    4.1860   -4.0610 hc        1 MOL      0.015457
     40 H16        -4.9850    3.3540   -4.3800 hc        1 MOL      0.015457
     41 N4         -5.7410    2.7190   -0.4860 n         1 MOL      0.021597
     42 C14        -6.7350    2.1670    0.4990 c3        1 MOL     -0.128993
     43 C15        -7.3260    0.8960   -0.0130 c         1 MOL      0.463725
     44 O9         -8.5260    0.6030    0.1690 o         1 MOL     -0.587233
     45 H17        -4.7670    2.7740   -0.2320 hn        1 MOL     -0.137728
     46 H18        -7.5250    2.8980    0.6660 h1        1 MOL      0.108510
     47 H19        -6.3310    1.9970    1.4950 h1        1 MOL      0.108510
     48 N5         -6.6020    0.1510   -0.8300 n         1 MOL     -0.102824
     49 C16        -7.0060   -1.0670   -1.5290 c3        1 MOL     -0.069123
     50 C17        -7.1580   -2.3110   -0.6150 c         1 MOL      0.406296
     51 O10        -7.8440   -3.3300   -0.8840 o         1 MOL     -0.566926
     52 C18        -5.9220   -1.2940   -2.6100 c3        1 MOL     -0.235691
     53 C19        -4.7930   -2.1620   -2.1020 c         1 MOL      0.418141
     54 N6         -4.7720   -3.3550   -2.5590 n         1 MOL     -0.642528
     55 O11        -3.9450   -1.8680   -1.2560 o         1 MOL     -0.391312
     56 H20        -5.6650    0.5020   -0.9860 hn        1 MOL      0.068448
     57 H21        -8.0050   -0.8890   -1.9390 h1        1 MOL      0.110068
     58 H22        -5.4330   -0.3630   -2.8800 hc        1 MOL      0.117527
     59 H23        -6.4200   -1.6910   -3.4890 hc        1 MOL      0.117527
     60 H24        -5.5210   -3.7410   -3.1260 hn        1 MOL      0.343896
     61 H25        -3.9700   -3.8460   -2.1930 hn        1 MOL      0.343896
     62 N7         -6.4960   -2.1690    0.5340 n         1 MOL      0.023825
     63 C20        -6.4350   -3.1540    1.6240 c3        1 MOL     -0.322037
     64 C21        -5.1680   -4.0680    1.8500 c         1 MOL      0.645099
     65 O12        -5.2500   -4.9760    2.6380 o         1 MOL     -0.585863
     66 H26        -5.9550   -1.3260    0.6560 hn        1 MOL      0.117199
     67 H27        -7.2610   -3.8470    1.4290 h1        1 MOL      0.117468
     68 H28        -6.5150   -2.6720    2.5910 h1        1 MOL      0.117468
     69 N8         -4.1100   -3.7860    1.0720 n         1 MOL     -0.205711
     70 C22        -2.7290   -4.4440    1.1060 c3        1 MOL     -0.174913
     71 C23        -1.6680   -3.3890    1.0190 c         1 MOL      0.735899
     72 O13        -1.9090   -2.2600    0.6810 o         1 MOL     -0.619502
     73 C24        -2.4930   -5.4830   -0.0320 c3        1 MOL      0.310244
     74 C25        -3.4390   -6.5750   -0.0390 c3        1 MOL     -0.404258
     75 O14        -2.6720   -4.9250   -1.2970 oh        1 MOL     -0.596940
     76 H29        -4.2000   -3.1580    0.2830 hn        1 MOL      0.114742
     77 H30        -2.6180   -4.9930    2.0470 h1        1 MOL      0.091328
     78 H31        -1.4920   -5.9150    0.0350 h1        1 MOL      0.034330
     79 H32        -2.8350   -5.7020   -1.8270 ho        1 MOL      0.394273
     80 H33        -4.4630   -6.2700   -0.2390 hc        1 MOL      0.104482
     81 H34        -3.1430   -7.2890   -0.8110 hc        1 MOL      0.104482
     82 H35        -3.3970   -7.0500    0.9400 hc        1 MOL      0.104482
     83 N9         -0.4090   -3.7990    1.3720 n         1 MOL     -0.517070
     84 C26         0.7690   -2.9130    1.4730 c3        1 MOL      0.130069
     85 C27         1.6390   -2.9870    0.2330 c         1 MOL      0.329133
     86 O15         1.9820   -4.0930   -0.2530 o         1 MOL     -0.564972
     87 C28         1.5760   -3.2920    2.7950 c3        1 MOL      0.025994
     88 C29         0.8040   -2.8920    4.0340 c3        1 MOL      0.021251
     89 C30         3.0420   -2.8450    2.9070 c3        1 MOL     -0.035914
     90 C31         1.4080   -3.4560    5.2920 c3        1 MOL     -0.254432
     91 H36        -0.2580   -4.8050    1.4040 hn        1 MOL      0.250788
     92 H37         0.4060   -1.8860    1.5650 h1        1 MOL      0.085357
     93 H38         1.5700   -4.3810    2.8720 hc        1 MOL      0.007986
     94 H39        -0.2340   -3.1880    3.9140 hc        1 MOL      0.017315
     95 H40         0.8410   -1.8040    4.1100 hc        1 MOL      0.017315
     96 H41         3.6000   -2.8680    1.9740 hc        1 MOL     -0.001795
     97 H42         2.9730   -1.7830    3.1570 hc        1 MOL     -0.001795
     98 H43         3.5990   -3.3350    3.7180 hc        1 MOL     -0.001795
     99 H44         2.3030   -2.9150    5.5900 hc        1 MOL      0.059699
    100 H45         0.7930   -3.2470    6.1770 hc        1 MOL      0.059699
    101 H46         1.7390   -4.4930    5.2610 hc        1 MOL      0.059699
    102 N10         1.9620   -1.8420   -0.3430 n         1 MOL     -0.049623
    103 C32         2.9500   -1.7090   -1.4430 c3        1 MOL      0.046415
    104 C33         4.4270   -1.4070   -0.9280 c         1 MOL      0.599449
    105 O16         4.6660   -1.1060    0.2350 o         1 MOL     -0.432542
    106 C34         2.5180   -0.6020   -2.3280 c3        1 MOL     -0.248168
    107 C35         1.1290   -0.7690   -2.9200 c         1 MOL      0.793605
    108 O17         1.0300   -1.7070   -3.7480 o         1 MOL     -0.711991
    109 O18         0.1840    0.0590   -2.6850 o         1 MOL     -0.711991
    110 H47         1.5740   -0.9750    0.0020 hn        1 MOL      0.087498
    111 H48         2.9400   -2.6260   -2.0310 h1        1 MOL      0.049038
    112 H49         3.2190   -0.4530   -3.1510 hc        1 MOL      0.058861
    113 H50         2.5720    0.3840   -1.8810 hc        1 MOL      0.058861
    114 N11         5.4980   -1.4410   -1.6910 n         1 MOL     -0.833744
    115 C36         6.8810   -1.2140   -1.1910 c3        1 MOL      0.558270
    116 C37         7.0140    0.1870   -0.6150 c         1 MOL      0.179238
    117 O19         7.5180    0.2850    0.4860 o         1 MOL     -0.484676
    118 C38         7.9870   -1.5040   -2.2950 c3        1 MOL     -0.233486
    119 C39         9.4840   -1.4860   -1.8390 ca        1 MOL      0.158948
    120 C40         9.8610   -2.0300   -0.5750 ca        1 MOL     -0.211086
    121 C41        10.3730   -0.9220   -2.7430 ca        1 MOL     -0.211086
    122 C42        11.2210   -1.8130   -0.2450 ca        1 MOL     -0.073381
    123 C43        11.7750   -0.7320   -2.3800 ca        1 MOL     -0.073381
    124 C44        12.1900   -1.2620   -1.1160 ca        1 MOL     -0.186485
    125 H51         5.4270   -1.7410   -2.6560 hn        1 MOL      0.354205
    126 H52         7.1020   -1.9110   -0.3860 h1        1 MOL      0.034596
    127 H53         7.8530   -0.9840   -3.2430 hc        1 MOL      0.048544
    128 H54         7.8270   -2.5450   -2.5840 hc        1 MOL      0.048544
    129 H55         9.1860   -2.5340    0.1030 ha        1 MOL      0.137381
    130 H56        10.0750   -0.4400   -3.6680 ha        1 MOL      0.137381
    131 H57        11.4940   -2.2010    0.7310 ha        1 MOL      0.107634
    132 H58        12.4850   -0.1620   -2.9590 ha        1 MOL      0.107634
    133 H59        13.1880   -1.0360   -0.7850 ha        1 MOL      0.123533
    134 N12         6.5430    1.2730   -1.2490 n         1 MOL      0.119086
    135 C45         6.6720    2.6280   -0.7000 c3        1 MOL      0.066986
    136 C46         5.7890    2.8750    0.5010 c         1 MOL      0.289021
    137 O20         6.1130    3.8080    1.2720 o         1 MOL     -0.499982
    138 C47         6.3340    3.6380   -1.7610 c3        1 MOL     -0.073788
    139 C48         6.6190    2.9160   -3.0480 c3        1 MOL      0.090504
    140 C49         6.3660    1.4420   -2.6570 c3        1 MOL     -0.272376
    141 H60         7.6610    2.8670   -0.2920 h1        1 MOL      0.050748
    142 H61         5.3220    4.0480   -1.7490 hc        1 MOL      0.043532
    143 H62         6.9760    4.5220   -1.7120 hc        1 MOL      0.043532
    144 H63         5.9990    3.2210   -3.8900 hc        1 MOL     -0.003601
    145 H64         7.6540    3.0510   -3.3570 hc        1 MOL     -0.003601
    146 H65         5.3300    1.2890   -2.9490 h1        1 MOL      0.088168
    147 H66         7.1520    0.8320   -3.0900 h1        1 MOL      0.088168
    148 N13         4.7000    2.0870    0.6940 n         1 MOL     -0.152707
    149 C50         3.8650    2.1250    1.9160 c3        1 MOL     -0.037902
    150 C51         4.5380    1.3770    3.1190 c         1 MOL      0.409780
    151 O21         4.6820    1.8300    4.2480 o         1 MOL     -0.535566
    152 C52         2.4730    1.5560    1.7040 c3        1 MOL      0.039627
    153 C53         1.7310    2.3220    0.5530 c3        1 MOL     -0.164661
    154 C54         0.3880    1.6150    0.2310 c         1 MOL      0.754896
    155 O22         0.2380    0.3970    0.2910 o         1 MOL     -0.744794
    156 O23        -0.4960    2.2490   -0.4060 o         1 MOL     -0.744794
    157 H67         4.4190    1.4410   -0.0240 hn        1 MOL      0.155835
    158 H68         3.7900    3.1700    2.2130 h1        1 MOL      0.095788
    159 H69         1.7820    1.5510    2.5530 hc        1 MOL      0.015843
    160 H70         2.5100    0.4950    1.4530 hc        1 MOL      0.015843
    161 H71         2.3050    2.3110   -0.3710 hc        1 MOL      0.046660
    162 H72         1.5500    3.3530    0.8690 hc        1 MOL      0.046660
    163 N14         5.1620    0.2120    2.7120 n         1 MOL      0.032803
    164 C55         6.1270   -0.4850    3.5840 c3        1 MOL     -0.296058
    165 H73         6.7660   -1.1270    2.9770 h1        1 MOL      0.096249
    166 H74         6.7410    0.2490    4.1060 h1        1 MOL      0.096249
    167 H75         5.5880   -1.0920    4.3110 h1        1 MOL      0.096249
    168 H76         5.0460   -0.0850    1.7560 hn        1 MOL      0.030470
    169 Ca1        -1.8780   -0.2150   -1.0510 Ca        1 MOL      1.702832
    170 O24        -0.9330   -2.6360   -2.0560 oh        1 MOL     -0.823653
    171 H77        -0.2230   -2.6510   -2.6840 ho        1 MOL      0.377816
    172 H78        -1.2680   -3.5350   -2.0450 ho        1 MOL      0.377816
    173 O25        -2.6730   -0.9320   -4.0590 oh        1 MOL     -0.823653
    174 H79        -2.8180   -0.0130   -4.2560 ho        1 MOL      0.377816
    175 H80        -1.9370   -1.1920   -4.6170 ho        1 MOL      0.377816
@<TRIPOS>BOND
     1    1    2 1   
     2    1    4 1   
     3    1    5 1   
     4    1    6 1   
     5    2    3 2   
     6    2    7 1   
     7    7    8 1   
     8    7   15 1   
     9    8    9 1   
    10    8   11 1   
    11    8   16 1   
    12    9   10 2   
    13    9   19 1   
    14   11   12 1   
    15   11   17 1   
    16   11   18 1   
    17   12   13 1   
    18   12   14 1   
    19   19   20 1   
    20   19   24 1   
    21   20   21 1   
    22   20   23 1   
    23   20   25 1   
    24   21   22 2   
    25   21   29 1   
    26   23   26 1   
    27   23   27 1   
    28   23   28 1   
    29   29   30 1   
    30   29   37 1   
    31   30   31 1   
    32   30   33 1   
    33   30   38 1   
    34   31   32 2   
    35   31   41 1   
    36   33   34 1   
    37   33   39 1   
    38   33   40 1   
    39   34   35 1   
    40   34   36 1   
    41   41   42 1   
    42   41   45 1   
    43   42   43 1   
    44   42   46 1   
    45   42   47 1   
    46   43   44 2   
    47   43   48 1   
    48   48   49 1   
    49   48   56 1   
    50   49   50 1   
    51   49   52 1   
    52   49   57 1   
    53   50   51 2   
    54   50   62 1   
    55   52   53 1   
    56   52   58 1   
    57   52   59 1   
    58   53   54 1   
    59   53   55 2   
    60   54   60 1   
    61   54   61 1   
    62   62   63 1   
    63   62   66 1   
    64   63   64 1   
    65   63   67 1   
    66   63   68 1   
    67   64   65 2   
    68   64   69 1   
    69   69   70 1   
    70   69   76 1   
    71   70   71 1   
    72   70   73 1   
    73   70   77 1   
    74   71   72 2   
    75   71   83 1   
    76   73   74 1   
    77   73   75 1   
    78   73   78 1   
    79   74   80 1   
    80   74   81 1   
    81   74   82 1   
    82   75   79 1   
    83   83   84 1   
    84   83   91 1   
    85   84   85 1   
    86   84   87 1   
    87   84   92 1   
    88   85   86 2   
    89   85  102 1   
    90   87   88 1   
    91   87   89 1   
    92   87   93 1   
    93   88   90 1   
    94   88   94 1   
    95   88   95 1   
    96   89   96 1   
    97   89   97 1   
    98   89   98 1   
    99   90   99 1   
   100   90  100 1   
   101   90  101 1   
   102  102  103 1   
   103  102  110 1   
   104  103  104 1   
   105  103  106 1   
   106  103  111 1   
   107  104  105 2   
   108  104  114 1   
   109  106  107 1   
   110  106  112 1   
   111  106  113 1   
   112  107  108 1   
   113  107  109 1   
   114  114  115 1   
   115  114  125 1   
   116  115  116 1   
   117  115  118 1   
   118  115  126 1   
   119  116  117 2   
   120  116  134 1   
   121  118  119 1   
   122  118  127 1   
   123  118  128 1   
   124  119  120 ar  
   125  119  121 ar  
   126  120  122 ar  
   127  120  129 1   
   128  121  123 ar  
   129  121  130 1   
   130  122  124 ar  
   131  122  131 1   
   132  123  124 ar  
   133  123  132 1   
   134  124  133 1   
   135  134  135 1   
   136  134  140 1   
   137  135  136 1   
   138  135  138 1   
   139  135  141 1   
   140  136  137 2   
   141  136  148 1   
   142  138  139 1   
   143  138  142 1   
   144  138  143 1   
   145  139  140 1   
   146  139  144 1   
   147  139  145 1   
   148  140  146 1   
   149  140  147 1   
   150  148  149 1   
   151  148  157 1   
   152  149  150 1   
   153  149  152 1   
   154  149  158 1   
   155  150  151 2   
   156  150  163 1   
   157  152  153 1   
   158  152  159 1   
   159  152  160 1   
   160  153  154 1   
   161  153  161 1   
   162  153  162 1   
   163  154  155 1   
   164  154  156 1   
   165  163  164 1   
   166  163  168 1   
   167  164  165 1   
   168  164  166 1   
   169  164  167 1   
   170  170  171 1   
   171  170  172 1   
   172  173  174 1   
   173  173  175 1   
@<TRIPOS>SUBSTRUCTURE
     1 MOL         1 TEMP              0 ****  ****    0 ROOT
