@<TRIPOS>MOLECULE
MOL
  186   183     1     0     0
SMALL
resp


@<TRIPOS>ATOM
      1 C1          0.6330   -1.9390    6.4760 c3        1 MOL     -0.351557
      2 C2          0.9380   -2.0600    5.0020 c         1 MOL      0.782144
      3 O1          0.2080   -2.6230    4.1760 o         1 MOL     -0.635380
      4 H1          0.3280   -2.9110    6.8640 hc        1 MOL      0.085813
      5 H2          1.5240   -1.6010    7.0050 hc        1 MOL      0.085813
      6 H3         -0.1730   -1.2200    6.6230 hc        1 MOL      0.085813
      7 N1          2.0420   -1.4500    4.5520 n         1 MOL     -0.657967
      8 C3          2.5720   -1.4650    3.1800 c3        1 MOL      0.216577
      9 C4          3.0030   -2.8930    2.6830 c         1 MOL      0.466827
     10 O2          3.9310   -3.4910    3.3060 o         1 MOL     -0.587396
     11 C5          3.7410   -0.4850    3.0860 c3        1 MOL     -0.113515
     12 C6          4.5810   -0.5370    1.7470 c         1 MOL      0.565456
     13 O3          5.8200   -0.2800    1.7050 o         1 MOL     -0.627549
     14 O4          3.9050   -0.7850    0.6950 o         1 MOL     -0.627549
     15 H4          2.5470   -0.8510    5.1840 hn        1 MOL      0.315249
     16 H5          1.7730   -1.0560    2.5620 h1        1 MOL      0.032441
     17 H6          4.4210   -0.5530    3.9260 hc        1 MOL      0.017717
     18 H7          3.2600    0.4990    3.1680 hc        1 MOL      0.017717
     19 N2          2.4060   -3.3760    1.6270 n         1 MOL     -0.210028
     20 C7          2.5270   -4.7800    1.1820 c3        1 MOL      0.067628
     21 C8          3.5610   -4.8790    0.0200 c         1 MOL      0.320673
     22 O5          4.3830   -5.7630    0.0930 o         1 MOL     -0.562260
     23 C9          1.0960   -5.3300    0.8470 c3        1 MOL      0.249264
     24 C10         0.0800   -5.2840    2.0260 c3        1 MOL      0.041378
     25 C11         1.0350   -6.6550    0.0860 c3        1 MOL     -0.202050
     26 C12         0.3260   -6.4270    3.0530 c3        1 MOL     -0.425703
     27 H8          1.6380   -2.8350    1.2660 hn        1 MOL      0.175680
     28 H9          2.9360   -5.3650    2.0040 h1        1 MOL      0.052107
     29 H10         0.7320   -4.6340    0.0970 hc        1 MOL     -0.069054
     30 H11        -0.9440   -5.4130    1.6850 hc        1 MOL      0.066791
     31 H12         0.1080   -4.2840    2.4640 hc        1 MOL      0.066791
     32 H13         1.5350   -6.5950   -0.8810 hc        1 MOL      0.031126
     33 H14         1.5770   -7.3570    0.7210 hc        1 MOL      0.031126
     34 H15        -0.0100   -6.9260   -0.0000 hc        1 MOL      0.031126
     35 H16         0.1170   -7.4410    2.7170 hc        1 MOL      0.088701
     36 H17         1.3650   -6.3070    3.3190 hc        1 MOL      0.088701
     37 H18        -0.3650   -6.2740    3.8920 hc        1 MOL      0.088701
     38 N3          3.5480   -4.0580   -0.9870 n         1 MOL     -0.049946
     39 C13         4.3360   -4.3180   -2.1710 c3        1 MOL     -0.070380
     40 C14         5.7160   -3.6090   -1.9860 c         1 MOL      0.483957
     41 O6          6.6460   -3.8890   -2.7550 o         1 MOL     -0.568682
     42 C15         3.7360   -3.7440   -3.5010 c3        1 MOL     -0.271848
     43 C16         3.3280   -2.3310   -3.4440 c         1 MOL      0.896690
     44 O7          2.7220   -1.8590   -4.4140 o         1 MOL     -0.763388
     45 O8          3.4720   -1.5860   -2.4710 o         1 MOL     -0.763388
     46 H19         2.8530   -3.3260   -0.9880 hn        1 MOL      0.100914
     47 H20         4.4260   -5.3880   -2.3330 h1        1 MOL      0.110132
     48 H21         2.8340   -4.2800   -3.7910 hc        1 MOL      0.075017
     49 H22         4.5020   -3.7740   -4.2760 hc        1 MOL      0.075017
     50 N4          5.9520   -2.7650   -0.9390 n         1 MOL     -0.222868
     51 C17         7.1950   -2.1830   -0.5400 c3        1 MOL     -0.167265
     52 C18         7.6530   -0.8040   -1.0570 c         1 MOL      0.482379
     53 O9          8.7840   -0.3720   -0.7850 o         1 MOL     -0.600808
     54 H23         5.1960   -2.3890   -0.3800 hn        1 MOL      0.206400
     55 H24         8.0250   -2.8850   -0.6060 h1        1 MOL      0.109817
     56 H25         7.2150   -2.0850    0.5380 h1        1 MOL      0.109817
     57 N5          6.7230   -0.0430   -1.6530 n         1 MOL     -0.214473
     58 C19         7.0110    1.3080   -2.1640 c3        1 MOL      0.028732
     59 C20         7.0870    2.3870   -1.1170 c         1 MOL      0.381083
     60 O10         7.2470    3.5730   -1.3270 o         1 MOL     -0.573150
     61 C21         6.0810    1.7470   -3.3290 c3        1 MOL     -0.383625
     62 C22         4.5930    1.7750   -2.8680 c         1 MOL      0.880391
     63 O11         3.7340    1.9990   -3.7560 o         1 MOL     -0.736822
     64 O12         4.3390    1.7860   -1.6580 o         1 MOL     -0.736822
     65 H26         5.8050   -0.4540   -1.7270 hn        1 MOL      0.136931
     66 H27         8.0070    1.1540   -2.5650 h1        1 MOL      0.082575
     67 H28         6.0710    1.0720   -4.1780 hc        1 MOL      0.101351
     68 H29         6.3540    2.7710   -3.5940 hc        1 MOL      0.101351
     69 N6          6.9100    2.0180    0.1180 n         1 MOL     -0.002522
     70 C23         6.9600    2.8390    1.2950 c3        1 MOL     -0.306302
     71 C24         5.6740    3.6020    1.6220 c         1 MOL      0.674618
     72 O13         5.7960    4.4290    2.4880 o         1 MOL     -0.608453
     73 H30         6.4790    1.1190    0.2550 hn        1 MOL      0.157444
     74 H31         7.6790    3.6470    1.1860 h1        1 MOL      0.111612
     75 H32         7.0790    2.2510    2.2110 h1        1 MOL      0.111612
     76 N7          4.5630    3.3770    0.9090 n         1 MOL     -0.464322
     77 C25         3.2740    3.9880    1.1040 c3        1 MOL      0.259481
     78 C26         2.0570    3.0670    1.1420 c         1 MOL      0.706593
     79 O14         2.1280    1.8560    0.8980 o         1 MOL     -0.784253
     80 C27         2.9770    5.1500    0.0780 c3        1 MOL     -0.138284
     81 C28         3.7640    6.4920    0.2240 c3        1 MOL     -0.049555
     82 C29         3.3570    7.5150   -0.7320 c         1 MOL      0.490657
     83 N8          3.5540    7.1950   -2.0220 n         1 MOL     -0.709349
     84 O15         2.6280    8.4860   -0.4130 o         1 MOL     -0.543242
     85 H33         4.7100    2.8380    0.0670 hn        1 MOL      0.300249
     86 H34         3.3810    4.5090    2.0580 h1        1 MOL     -0.014893
     87 H35         1.9220    5.3940    0.2360 hc        1 MOL      0.068425
     88 H36         3.2070    4.7060   -0.8830 hc        1 MOL      0.068425
     89 H37         4.8340    6.3490    0.1190 hc        1 MOL      0.031607
     90 H38         3.5820    6.8200    1.2440 hc        1 MOL      0.031607
     91 H39         4.2490    6.4950   -2.2150 hn        1 MOL      0.346754
     92 H40         3.2930    7.8710   -2.7370 hn        1 MOL      0.346754
     93 N9          0.9650    3.5790    1.6150 n         1 MOL     -0.687117
     94 C30        -0.2730    2.7780    1.9340 c3        1 MOL      0.075596
     95 C31        -1.3690    3.3450    0.9450 c         1 MOL      0.400822
     96 O16        -1.7120    4.5100    1.0050 o         1 MOL     -0.560035
     97 C32        -0.5850    2.7450    3.4650 c3        1 MOL      0.111658
     98 C33        -1.8590    1.9890    3.8040 c3        1 MOL     -0.256120
     99 C34         0.5460    2.0900    4.1180 c3        1 MOL     -0.256120
    100 H41         1.0000    4.5310    1.9430 hn        1 MOL      0.347237
    101 H42        -0.0350    1.7630    1.6370 h1        1 MOL      0.223273
    102 H43        -0.5960    3.7600    3.8590 hc        1 MOL      0.021865
    103 H44        -2.1400    1.9100    4.8470 hc        1 MOL      0.061112
    104 H45        -2.6570    2.4710    3.2450 hc        1 MOL      0.061112
    105 H46        -1.8260    0.9610    3.4530 hc        1 MOL      0.061112
    106 H47         1.5310    2.5590    4.0290 hc        1 MOL      0.061112
    107 H48         0.4320    2.1140    5.2070 hc        1 MOL      0.061112
    108 H49         0.7690    1.1080    3.7140 hc        1 MOL      0.061112
    109 N10        -1.8110    2.5740    0.0070 n         1 MOL     -0.121009
    110 C35        -2.8860    2.8510   -0.9420 c3        1 MOL      0.046508
    111 C36        -4.2130    2.3310   -0.4060 c         1 MOL      0.396235
    112 O17        -4.2820    1.5700    0.5700 o         1 MOL     -0.377239
    113 C37        -2.4100    2.2900   -2.2820 c3        1 MOL     -0.289793
    114 C38        -3.1280    1.0110   -2.5790 c         1 MOL      0.522917
    115 N11        -2.6170   -0.0920   -2.0440 n         1 MOL     -0.544824
    116 O18        -4.0840    1.0400   -3.3400 o         1 MOL     -0.574696
    117 H50        -1.4610    1.6220   -0.0510 hn        1 MOL      0.168270
    118 H51        -3.0190    3.9240   -1.1070 h1        1 MOL      0.073045
    119 H52        -1.3530    2.0410   -2.2200 hc        1 MOL      0.107863
    120 H53        -2.6480    2.9660   -3.1000 hc        1 MOL      0.107863
    121 H54        -1.7890   -0.0370   -1.4640 hn        1 MOL      0.314870
    122 H55        -2.7360   -0.9240   -2.6030 hn        1 MOL      0.314870
    123 N12        -5.3730    2.6010   -1.0970 n         1 MOL     -0.625645
    124 C39        -6.6390    2.0520   -0.6200 c3        1 MOL      0.410703
    125 C40        -6.7610    0.5780   -0.4190 c         1 MOL      0.672998
    126 O19        -7.3930    0.2080    0.5580 o         1 MOL     -0.563878
    127 C41        -7.7010    2.3570   -1.6610 c3        1 MOL     -0.208435
    128 C42        -9.0990    2.0790   -1.0380 ca        1 MOL     -0.127051
    129 C43        -9.5570    2.8690    0.1000 ca        1 MOL     -0.057837
    130 C44        -9.8970    1.0370   -1.5280 ca        1 MOL     -0.057837
    131 C45       -10.8730    2.6770    0.5540 ca        1 MOL     -0.333139
    132 C46       -11.1990    0.8790   -1.1530 ca        1 MOL     -0.333139
    133 C47       -11.7330    1.6750   -0.0830 ca        1 MOL      0.413278
    134 O20       -13.0300    1.5870    0.2110 oh        1 MOL     -0.513834
    135 H56        -5.2960    3.1170   -1.9660 hn        1 MOL      0.310514
    136 H57        -6.9730    2.5670    0.2890 h1        1 MOL     -0.003399
    137 H58        -7.5670    1.8130   -2.5930 hc        1 MOL      0.081232
    138 H59        -7.5500    3.4330   -1.8190 hc        1 MOL      0.081232
    139 H60        -8.9330    3.6570    0.4900 ha        1 MOL      0.124259
    140 H61        -9.3890    0.4280   -2.2530 ha        1 MOL      0.124259
    141 H62       -11.3190    3.2530    1.3550 ha        1 MOL      0.152873
    142 H63       -11.8600    0.2130   -1.6840 ha        1 MOL      0.152873
    143 H64       -13.4560    1.0410   -0.4570 ho        1 MOL      0.365586
    144 N13        -6.1630   -0.3010   -1.2510 n         1 MOL     -0.499841
    145 C48        -6.2110   -1.7330   -1.0340 c3        1 MOL      0.045603
    146 C49        -5.4730   -2.1740    0.1800 c         1 MOL      0.260784
    147 O21        -5.7740   -3.2220    0.7470 o         1 MOL     -0.509481
    148 C50        -5.6930   -2.2810   -2.3280 c3        1 MOL      0.035736
    149 C51        -6.1890   -3.7470   -2.5020 c3        1 MOL     -0.373052
    150 C52        -5.6830   -4.4470   -3.7480 c         1 MOL      0.798762
    151 O22        -6.4400   -4.5050   -4.6890 o         1 MOL     -0.770751
    152 O23        -4.5510   -5.0030   -3.8350 o         1 MOL     -0.770751
    153 H65        -5.7010    0.0970   -2.0530 hn        1 MOL      0.218055
    154 H66        -7.2370   -2.0760   -0.8840 h1        1 MOL      0.082556
    155 H67        -4.6090   -2.1540   -2.2780 hc        1 MOL      0.032448
    156 H68        -6.0480   -1.7320   -3.2060 hc        1 MOL      0.032448
    157 H69        -7.2800   -3.7750   -2.4570 hc        1 MOL      0.069809
    158 H70        -5.8890   -4.3860   -1.6730 hc        1 MOL      0.069809
    159 N14        -4.4660   -1.4410    0.5610 n         1 MOL      0.126875
    160 C53        -3.6230   -1.7440    1.7210 c3        1 MOL     -0.265925
    161 C54        -4.2750   -1.0610    2.9820 c         1 MOL      0.418179
    162 O24        -4.1680   -1.5610    4.1310 o         1 MOL     -0.580468
    163 C55        -2.1870   -1.3470    1.5100 c3        1 MOL      0.192613
    164 C56        -1.4110   -2.0790    0.4370 c3        1 MOL     -0.057575
    165 C57        -0.1910   -1.2700   -0.0410 c         1 MOL      0.516141
    166 O25         0.9510   -1.8140    0.0520 o         1 MOL     -0.603315
    167 O26        -0.1790   -0.0920   -0.5050 o         1 MOL     -0.603315
    168 H71        -4.2020   -0.6860   -0.0470 hn        1 MOL      0.253774
    169 H72        -3.6390   -2.8110    1.9690 h1        1 MOL      0.133311
    170 H73        -1.5830   -1.4920    2.4050 hc        1 MOL     -0.009254
    171 H74        -2.1340   -0.2700    1.4340 hc        1 MOL     -0.009254
    172 H75        -2.1050   -2.1670   -0.3930 hc        1 MOL     -0.050125
    173 H76        -1.0880   -3.0110    0.9090 hc        1 MOL     -0.050125
    174 N15        -4.9990    0.0140    2.8300 n         1 MOL      0.067513
    175 C58        -5.9450    0.6160    3.7700 c3        1 MOL     -0.231131
    176 H77        -6.3590   -0.1600    4.4140 h1        1 MOL      0.081283
    177 H78        -5.4300    1.3580    4.3800 h1        1 MOL      0.081283
    178 H79        -6.7520    1.0970    3.2160 h1        1 MOL      0.081283
    179 H80        -5.0800    0.3250    1.8700 hn        1 MOL     -0.090070
    180 Ca1         2.2460    0.1360   -1.1230 Ca        1 MOL      1.713757
    181 O27         1.4060    2.3460   -2.5940 oh        1 MOL     -0.930688
    182 H81         2.1420    2.5450   -3.1770 ho        1 MOL      0.425115
    183 H82         0.7270    2.0070   -3.1750 ho        1 MOL      0.425115
    184 O28         0.7450   -0.2900   -3.1600 oh        1 MOL     -0.930688
    185 H83         0.1970    0.0820   -3.8520 ho        1 MOL      0.425115
    186 H84         1.1910   -1.0340   -3.5780 ho        1 MOL      0.425115
@<TRIPOS>BOND
     1    1    2 1   
     2    1    4 1   
     3    1    5 1   
     4    1    6 1   
     5    2    3 2   
     6    2    7 1   
     7    7    8 1   
     8    7   15 1   
     9    8    9 1   
    10    8   11 1   
    11    8   16 1   
    12    9   10 2   
    13    9   19 1   
    14   11   12 1   
    15   11   17 1   
    16   11   18 1   
    17   12   13 1   
    18   12   14 1   
    19   19   20 1   
    20   19   27 1   
    21   20   21 1   
    22   20   23 1   
    23   20   28 1   
    24   21   22 2   
    25   21   38 1   
    26   23   24 1   
    27   23   25 1   
    28   23   29 1   
    29   24   26 1   
    30   24   30 1   
    31   24   31 1   
    32   25   32 1   
    33   25   33 1   
    34   25   34 1   
    35   26   35 1   
    36   26   36 1   
    37   26   37 1   
    38   38   39 1   
    39   38   46 1   
    40   39   40 1   
    41   39   42 1   
    42   39   47 1   
    43   40   41 2   
    44   40   50 1   
    45   42   43 1   
    46   42   48 1   
    47   42   49 1   
    48   43   44 1   
    49   43   45 1   
    50   50   51 1   
    51   50   54 1   
    52   51   52 1   
    53   51   55 1   
    54   51   56 1   
    55   52   53 2   
    56   52   57 1   
    57   57   58 1   
    58   57   65 1   
    59   58   59 1   
    60   58   61 1   
    61   58   66 1   
    62   59   60 2   
    63   59   69 1   
    64   61   62 1   
    65   61   67 1   
    66   61   68 1   
    67   62   63 1   
    68   62   64 1   
    69   69   70 1   
    70   69   73 1   
    71   70   71 1   
    72   70   74 1   
    73   70   75 1   
    74   71   72 2   
    75   71   76 1   
    76   76   77 1   
    77   76   85 1   
    78   77   78 1   
    79   77   80 1   
    80   77   86 1   
    81   78   79 2   
    82   78   93 1   
    83   80   81 1   
    84   80   87 1   
    85   80   88 1   
    86   81   82 1   
    87   81   89 1   
    88   81   90 1   
    89   82   83 1   
    90   82   84 2   
    91   83   91 1   
    92   83   92 1   
    93   93   94 1   
    94   93  100 1   
    95   94   95 1   
    96   94   97 1   
    97   94  101 1   
    98   95   96 2   
    99   95  109 1   
   100   97   98 1   
   101   97   99 1   
   102   97  102 1   
   103   98  103 1   
   104   98  104 1   
   105   98  105 1   
   106   99  106 1   
   107   99  107 1   
   108   99  108 1   
   109  109  110 1   
   110  109  117 1   
   111  110  111 1   
   112  110  113 1   
   113  110  118 1   
   114  111  112 2   
   115  111  123 1   
   116  113  114 1   
   117  113  119 1   
   118  113  120 1   
   119  114  115 1   
   120  114  116 2   
   121  115  121 1   
   122  115  122 1   
   123  123  124 1   
   124  123  135 1   
   125  124  125 1   
   126  124  127 1   
   127  124  136 1   
   128  125  126 2   
   129  125  144 1   
   130  127  128 1   
   131  127  137 1   
   132  127  138 1   
   133  128  129 ar  
   134  128  130 ar  
   135  129  131 ar  
   136  129  139 1   
   137  130  132 ar  
   138  130  140 1   
   139  131  133 ar  
   140  131  141 1   
   141  132  133 ar  
   142  132  142 1   
   143  133  134 1   
   144  134  143 1   
   145  144  145 1   
   146  144  153 1   
   147  145  146 1   
   148  145  148 1   
   149  145  154 1   
   150  146  147 2   
   151  146  159 1   
   152  148  149 1   
   153  148  155 1   
   154  148  156 1   
   155  149  150 1   
   156  149  157 1   
   157  149  158 1   
   158  150  151 1   
   159  150  152 1   
   160  159  160 1   
   161  159  168 1   
   162  160  161 1   
   163  160  163 1   
   164  160  169 1   
   165  161  162 2   
   166  161  174 1   
   167  163  164 1   
   168  163  170 1   
   169  163  171 1   
   170  164  165 1   
   171  164  172 1   
   172  164  173 1   
   173  165  166 1   
   174  165  167 1   
   175  174  175 1   
   176  174  179 1   
   177  175  176 1   
   178  175  177 1   
   179  175  178 1   
   180  181  182 1   
   181  181  183 1   
   182  184  185 1   
   183  184  186 1   
@<TRIPOS>SUBSTRUCTURE
     1 MOL         1 TEMP              0 ****  ****    0 ROOT
