@<TRIPOS>MOLECULE
MOL
  179   176     1     0     0
SMALL
resp


@<TRIPOS>ATOM
      1 C1          1.9880    3.5080    4.2100 c3        1 MOL     -0.447135
      2 C2          1.0750    3.1020    3.0250 c         1 MOL      0.666574
      3 O1          1.5290    3.2530    1.8810 o         1 MOL     -0.557636
      4 H1          2.9690    3.7930    3.8320 hc        1 MOL      0.109863
      5 H2          1.5440    4.3500    4.7400 hc        1 MOL      0.109863
      6 H3          2.0950    2.6640    4.8920 hc        1 MOL      0.109863
      7 N1         -0.1530    2.7180    3.2810 n         1 MOL     -0.634400
      8 C3         -1.1630    2.4940    2.1550 c3        1 MOL      0.345179
      9 C4         -1.8770    3.7950    1.7200 c         1 MOL      0.316036
     10 O2         -3.0390    4.0550    2.0530 o         1 MOL     -0.449776
     11 C5         -2.1680    1.3810    2.5140 c3        1 MOL     -0.015535
     12 C6         -3.1120    1.0980    1.3500 c         1 MOL      0.299525
     13 O3         -4.3670    0.9950    1.5750 o         1 MOL     -0.594005
     14 O4         -2.6370    0.9420    0.2260 o         1 MOL     -0.594005
     15 H4         -0.3970    2.6810    4.2630 hn        1 MOL      0.336025
     16 H5         -0.6490    2.2600    1.2320 h1        1 MOL     -0.068611
     17 H6         -2.6590    1.7520    3.4190 hc        1 MOL      0.028565
     18 H7         -1.5810    0.5160    2.7960 hc        1 MOL      0.028565
     19 N2         -1.1580    4.5220    0.9160 n         1 MOL     -0.300672
     20 C7         -1.3720    5.8980    0.5580 c3        1 MOL      0.026471
     21 C8         -2.4290    5.9390   -0.5080 c         1 MOL      0.316819
     22 O5         -3.2630    6.8470   -0.5310 o         1 MOL     -0.494726
     23 C9         -0.1240    6.5600    0.0040 c3        1 MOL     -0.095081
     24 C10         0.8770    6.9530    1.0540 c3        1 MOL      0.013231
     25 C11         2.0490    7.7910    0.4350 c3        1 MOL      0.043647
     26 C12         2.9530    8.5350    1.4360 c3        1 MOL     -0.178932
     27 N3          3.7940    7.5280    2.0710 n4        1 MOL     -0.281331
     28 H8         -0.2090    4.2420    0.7450 hn        1 MOL      0.317830
     29 H9         -1.7860    6.3880    1.4490 h1        1 MOL      0.098188
     30 H10        -0.4780    7.4690   -0.4730 hc        1 MOL      0.052517
     31 H11         0.3050    5.9560   -0.7960 hc        1 MOL      0.052517
     32 H12         1.2720    6.0700    1.5660 hc        1 MOL     -0.002641
     33 H13         0.4100    7.6510    1.7430 hc        1 MOL     -0.002641
     34 H14         1.6660    8.5870   -0.2020 hc        1 MOL      0.038139
     35 H15         2.6590    7.1340   -0.1800 hc        1 MOL      0.038139
     36 H16         2.3140    9.1030    2.1110 hx        1 MOL      0.154076
     37 H17         3.6040    9.2020    0.8700 hx        1 MOL      0.154076
     38 H18         3.2260    6.8590    2.5800 hn        1 MOL      0.316570
     39 H19         4.2270    6.8260    1.4850 hn        1 MOL      0.316570
     40 H20         4.4110    7.8770    2.7920 hn        1 MOL      0.316570
     41 N4         -2.3820    4.9580   -1.4070 n         1 MOL     -0.182449
     42 C13        -3.3740    4.6750   -2.4270 c3        1 MOL     -0.005283
     43 C14        -4.7300    4.1330   -1.8400 c         1 MOL      0.434088
     44 O6         -5.7800    4.3990   -2.5030 o         1 MOL     -0.538070
     45 C15        -2.7910    3.7260   -3.5090 c3        1 MOL     -0.083609
     46 C16        -2.4070    2.4150   -2.9090 c         1 MOL      0.713243
     47 O7         -3.3180    1.5750   -2.6570 o         1 MOL     -0.758941
     48 O8         -1.2000    2.2040   -2.6870 o         1 MOL     -0.758941
     49 H21        -1.6020    4.3240   -1.3330 hn        1 MOL      0.177327
     50 H22        -3.6330    5.5700   -2.9980 h1        1 MOL      0.086056
     51 H23        -2.0010    4.3360   -3.9510 hc        1 MOL      0.031544
     52 H24        -3.5090    3.6120   -4.3180 hc        1 MOL      0.031544
     53 N5         -4.7670    3.5040   -0.6250 n         1 MOL     -0.076599
     54 C17        -6.0600    3.1230    0.0150 c3        1 MOL     -0.312181
     55 C18        -6.6590    1.8000   -0.5400 c         1 MOL      0.617276
     56 O9         -7.8560    1.5590   -0.2920 o         1 MOL     -0.605868
     57 H25        -3.9060    3.2110   -0.1850 hn        1 MOL      0.186888
     58 H26        -6.8650    3.8390   -0.1460 h1        1 MOL      0.141642
     59 H27        -5.9710    2.9460    1.0800 h1        1 MOL      0.141642
     60 N6         -5.8730    1.0240   -1.2660 n         1 MOL     -0.339029
     61 C19        -6.2480   -0.3050   -1.7640 c3        1 MOL      0.050745
     62 C20        -6.2810   -1.3750   -0.6590 c         1 MOL      0.324090
     63 O10        -6.7410   -2.5110   -0.9150 o         1 MOL     -0.534132
     64 C21        -5.5680   -0.6910   -3.0770 c3        1 MOL     -0.325872
     65 C22        -4.2680   -1.5810   -2.9040 c         1 MOL      0.609504
     66 N7         -4.0750   -2.4840   -3.8030 n         1 MOL     -0.728483
     67 O11        -3.4160   -1.5000   -1.9890 o         1 MOL     -0.549817
     68 H28        -4.9260    1.3850   -1.4050 hn        1 MOL      0.220311
     69 H29        -7.2980   -0.1530   -2.0420 h1        1 MOL      0.121932
     70 H30        -5.3590    0.2070   -3.6610 hc        1 MOL      0.137418
     71 H31        -6.2940   -1.2880   -3.6130 hc        1 MOL      0.137418
     72 H32        -4.6910   -2.4720   -4.6090 hn        1 MOL      0.354828
     73 H33        -3.2500   -3.0600   -3.8370 hn        1 MOL      0.354828
     74 N8         -5.8780   -1.0950    0.5780 n         1 MOL     -0.075697
     75 C23        -5.9920   -1.9330    1.7530 c3        1 MOL     -0.345408
     76 C24        -4.7220   -2.7340    2.1690 c         1 MOL      0.555714
     77 O12        -4.7540   -3.5830    3.1310 o         1 MOL     -0.551500
     78 H34        -5.7300   -0.1110    0.7990 hn        1 MOL      0.275621
     79 H35        -6.7830   -2.6750    1.6100 h1        1 MOL      0.156611
     80 H36        -6.2240   -1.2030    2.5270 h1        1 MOL      0.156611
     81 N9         -3.5620   -2.6000    1.4680 n         1 MOL     -0.317835
     82 C25        -2.4220   -3.4850    1.5820 c3        1 MOL      0.472833
     83 C26        -1.0600   -2.7580    1.4120 c         1 MOL      0.199224
     84 O13        -1.0780   -1.6630    0.8940 o         1 MOL     -0.615713
     85 C27        -2.3340   -4.5770    0.5080 c3        1 MOL      0.091295
     86 C28        -3.5680   -5.5060    0.5320 ca        1 MOL     -0.062715
     87 C29        -4.0560   -6.1190    1.6780 ca        1 MOL     -0.252116
     88 C30        -4.4230   -5.4510   -0.5720 ca        1 MOL     -0.252116
     89 C31        -5.2910   -6.8200    1.7520 ca        1 MOL     -0.114227
     90 C32        -5.6980   -6.0740   -0.5380 ca        1 MOL     -0.114227
     91 C33        -6.1650   -6.7590    0.6130 ca        1 MOL      0.214013
     92 O14        -7.3230   -7.3990    0.6740 oh        1 MOL     -0.430392
     93 H37        -3.6050   -1.9180    0.7380 hn        1 MOL      0.238383
     94 H38        -2.4070   -3.9500    2.5720 h1        1 MOL     -0.063167
     95 H39        -1.4030   -5.1180    0.6250 hc        1 MOL     -0.026243
     96 H40        -2.3110   -4.0880   -0.4710 hc        1 MOL     -0.026243
     97 H41        -3.3950   -6.1080    2.5350 ha        1 MOL      0.163271
     98 H42        -4.2230   -4.8280   -1.4280 ha        1 MOL      0.163271
     99 H43        -5.5460   -7.3680    2.6390 ha        1 MOL      0.114404
    100 H44        -6.2240   -6.0810   -1.4870 ha        1 MOL      0.114404
    101 H45        -7.7820   -7.2930   -0.1640 ho        1 MOL      0.348032
    102 N10         0.0560   -3.3110    1.9240 n         1 MOL     -0.347152
    103 C34         1.3570   -2.6590    1.9670 c3        1 MOL     -0.077524
    104 C35         2.4530   -3.6510    1.5270 c         1 MOL      0.422016
    105 O15         2.6090   -4.7540    2.0730 o         1 MOL     -0.524396
    106 C36         1.7360   -2.1520    3.3850 c3        1 MOL      0.112839
    107 C37         0.7450   -1.1350    3.9200 c3        1 MOL      0.087822
    108 C38         3.0950   -1.3290    3.4360 c3        1 MOL     -0.158649
    109 C39         0.7570   -0.9120    5.4430 c3        1 MOL     -0.444597
    110 H46        -0.1560   -4.1760    2.3860 hn        1 MOL      0.281007
    111 H47         1.3390   -1.8770    1.2170 h1        1 MOL      0.168179
    112 H48         1.7060   -2.9580    4.1210 hc        1 MOL      0.031820
    113 H49        -0.3110   -1.3280    3.7140 hc        1 MOL      0.042564
    114 H50         1.0360   -0.2750    3.3140 hc        1 MOL      0.042564
    115 H51         3.1320   -0.3900    2.8900 hc        1 MOL      0.026595
    116 H52         3.5540   -1.3230    4.4250 hc        1 MOL      0.026595
    117 H53         3.8580   -1.8500    2.8600 hc        1 MOL      0.026595
    118 H54         0.0320   -0.1140    5.6040 hc        1 MOL      0.113320
    119 H55         0.4860   -1.8690    5.8690 hc        1 MOL      0.113320
    120 H56         1.7720   -0.6110    5.7010 hc        1 MOL      0.113320
    121 N11         3.2630   -3.2160    0.5330 n         1 MOL     -0.153525
    122 C40         4.3130   -3.9220   -0.1950 c3        1 MOL     -0.032293
    123 C41         5.6790   -3.2690   -0.0300 c         1 MOL      0.385149
    124 O16         5.8040   -2.1180    0.4710 o         1 MOL     -0.313629
    125 C42         4.0030   -3.9030   -1.6940 c3        1 MOL     -0.042747
    126 O17         4.0370   -2.6420   -2.3130 oh        1 MOL     -0.494845
    127 H57         3.0970   -2.3190    0.0930 hn        1 MOL      0.181356
    128 H58         4.2990   -4.9620    0.1280 h1        1 MOL      0.083269
    129 H59         3.0650   -4.4290   -1.8530 h1        1 MOL      0.067703
    130 H60         4.7380   -4.5030   -2.2150 h1        1 MOL      0.067703
    131 H61         3.2220   -2.2250   -2.0480 ho        1 MOL      0.310936
    132 N12         6.7390   -4.0090   -0.4720 n         1 MOL     -0.456999
    133 C43         8.1320   -3.5210   -0.4400 c3        1 MOL      0.186272
    134 C44         8.3290   -2.1600   -1.0800 c         1 MOL      0.491548
    135 O18         8.8270   -1.2710   -0.4150 o         1 MOL     -0.517049
    136 C45         9.0620   -4.5500   -1.0750 c3        1 MOL     -0.317730
    137 H62         6.6090   -4.9280   -0.8780 hn        1 MOL      0.303943
    138 H63         8.4810   -3.4020    0.5860 h1        1 MOL      0.068690
    139 H64         8.9300   -5.4680   -0.5010 hc        1 MOL      0.090398
    140 H65         8.6500   -4.6880   -2.0730 hc        1 MOL      0.090398
    141 H66        10.1240   -4.3100   -0.9850 hc        1 MOL      0.090398
    142 N13         7.7480   -1.9550   -2.2840 n         1 MOL     -0.472001
    143 C46         7.8830   -0.6300   -2.9230 c3        1 MOL      0.067123
    144 C47         7.2810    0.4930   -2.1100 c         1 MOL      0.400350
    145 O19         7.6760    1.6390   -2.2570 o         1 MOL     -0.542217
    146 C48         7.1990   -0.8030   -4.3030 c3        1 MOL     -0.207914
    147 H67         7.3390   -2.7360   -2.7780 hn        1 MOL      0.337051
    148 H68         8.9500   -0.4160   -3.0370 h1        1 MOL      0.098449
    149 H69         7.4250    0.0190   -4.9940 hc        1 MOL      0.061380
    150 H70         7.5290   -1.7550   -4.7260 hc        1 MOL      0.061380
    151 H71         6.1360   -0.9610   -4.1120 hc        1 MOL      0.061380
    152 N14         6.2960    0.1970   -1.2930 n         1 MOL      0.052782
    153 C49         5.6050    1.2560   -0.5560 c3        1 MOL     -0.205572
    154 C50         6.1550    1.4700    0.8740 c         1 MOL      0.422302
    155 O20         6.1900    2.5960    1.4230 o         1 MOL     -0.581860
    156 C51         4.1060    0.8770   -0.3740 c3        1 MOL      0.122113
    157 C52         3.3940    0.6960   -1.6350 c3        1 MOL     -0.120149
    158 C53         2.0710    0.0450   -1.3630 c         1 MOL      0.740740
    159 O21         1.9980   -1.2240   -1.5100 o         1 MOL     -0.707359
    160 O22         1.1780    0.7410   -0.9460 o         1 MOL     -0.707359
    161 H72         6.0250   -0.7700   -1.1830 hn        1 MOL      0.073408
    162 H73         5.7220    2.2370   -1.0280 h1        1 MOL      0.125335
    163 H74         3.6160    1.6580    0.1910 hc        1 MOL     -0.001134
    164 H75         4.0190   -0.0880    0.1350 hc        1 MOL     -0.001134
    165 H76         3.8620    0.1610   -2.4660 hc        1 MOL      0.006850
    166 H77         3.1480    1.6620   -2.0620 hc        1 MOL      0.006850
    167 N15         6.7230    0.4070    1.3520 n         1 MOL      0.037601
    168 C54         7.6130    0.4330    2.5030 c3        1 MOL     -0.339862
    169 H78         8.5030    1.0130    2.2590 h1        1 MOL      0.122145
    170 H79         7.1010    0.8910    3.3490 h1        1 MOL      0.122145
    171 H80         7.9020   -0.5860    2.7610 h1        1 MOL      0.122145
    172 H81         6.5460   -0.4750    0.8940 hn        1 MOL      0.003828
    173 Ca1        -1.1810   -0.1530   -1.5000 Ca        1 MOL      1.743913
    174 O23        -0.3780   -0.3420   -3.9780 oh        1 MOL     -0.838693
    175 H82        -0.2060    0.5140   -4.3860 ho        1 MOL      0.413015
    176 H83        -0.1110   -0.9770   -4.6400 ho        1 MOL      0.413015
    177 O24        -0.2610   -2.6860   -1.9820 oh        1 MOL     -0.838693
    178 H84         0.6970   -2.6020   -1.9510 ho        1 MOL      0.413015
    179 H85        -0.4220   -3.6130   -2.1700 ho        1 MOL      0.413015
@<TRIPOS>BOND
     1    1    2 1   
     2    1    4 1   
     3    1    5 1   
     4    1    6 1   
     5    2    3 2   
     6    2    7 1   
     7    7    8 1   
     8    7   15 1   
     9    8    9 1   
    10    8   11 1   
    11    8   16 1   
    12    9   10 2   
    13    9   19 1   
    14   11   12 1   
    15   11   17 1   
    16   11   18 1   
    17   12   13 1   
    18   12   14 1   
    19   19   20 1   
    20   19   28 1   
    21   20   21 1   
    22   20   23 1   
    23   20   29 1   
    24   21   22 2   
    25   21   41 1   
    26   23   24 1   
    27   23   30 1   
    28   23   31 1   
    29   24   25 1   
    30   24   32 1   
    31   24   33 1   
    32   25   26 1   
    33   25   34 1   
    34   25   35 1   
    35   26   27 1   
    36   26   36 1   
    37   26   37 1   
    38   27   38 1   
    39   27   39 1   
    40   27   40 1   
    41   41   42 1   
    42   41   49 1   
    43   42   43 1   
    44   42   45 1   
    45   42   50 1   
    46   43   44 2   
    47   43   53 1   
    48   45   46 1   
    49   45   51 1   
    50   45   52 1   
    51   46   47 1   
    52   46   48 1   
    53   53   54 1   
    54   53   57 1   
    55   54   55 1   
    56   54   58 1   
    57   54   59 1   
    58   55   56 2   
    59   55   60 1   
    60   60   61 1   
    61   60   68 1   
    62   61   62 1   
    63   61   64 1   
    64   61   69 1   
    65   62   63 2   
    66   62   74 1   
    67   64   65 1   
    68   64   70 1   
    69   64   71 1   
    70   65   66 1   
    71   65   67 2   
    72   66   72 1   
    73   66   73 1   
    74   74   75 1   
    75   74   78 1   
    76   75   76 1   
    77   75   79 1   
    78   75   80 1   
    79   76   77 2   
    80   76   81 1   
    81   81   82 1   
    82   81   93 1   
    83   82   83 1   
    84   82   85 1   
    85   82   94 1   
    86   83   84 2   
    87   83  102 1   
    88   85   86 1   
    89   85   95 1   
    90   85   96 1   
    91   86   87 ar  
    92   86   88 ar  
    93   87   89 ar  
    94   87   97 1   
    95   88   90 ar  
    96   88   98 1   
    97   89   91 ar  
    98   89   99 1   
    99   90   91 ar  
   100   90  100 1   
   101   91   92 1   
   102   92  101 1   
   103  102  103 1   
   104  102  110 1   
   105  103  104 1   
   106  103  106 1   
   107  103  111 1   
   108  104  105 2   
   109  104  121 1   
   110  106  107 1   
   111  106  108 1   
   112  106  112 1   
   113  107  109 1   
   114  107  113 1   
   115  107  114 1   
   116  108  115 1   
   117  108  116 1   
   118  108  117 1   
   119  109  118 1   
   120  109  119 1   
   121  109  120 1   
   122  121  122 1   
   123  121  127 1   
   124  122  123 1   
   125  122  125 1   
   126  122  128 1   
   127  123  124 2   
   128  123  132 1   
   129  125  126 1   
   130  125  129 1   
   131  125  130 1   
   132  126  131 1   
   133  132  133 1   
   134  132  137 1   
   135  133  134 1   
   136  133  136 1   
   137  133  138 1   
   138  134  135 2   
   139  134  142 1   
   140  136  139 1   
   141  136  140 1   
   142  136  141 1   
   143  142  143 1   
   144  142  147 1   
   145  143  144 1   
   146  143  146 1   
   147  143  148 1   
   148  144  145 2   
   149  144  152 1   
   150  146  149 1   
   151  146  150 1   
   152  146  151 1   
   153  152  153 1   
   154  152  161 1   
   155  153  154 1   
   156  153  156 1   
   157  153  162 1   
   158  154  155 2   
   159  154  167 1   
   160  156  157 1   
   161  156  163 1   
   162  156  164 1   
   163  157  158 1   
   164  157  165 1   
   165  157  166 1   
   166  158  159 1   
   167  158  160 1   
   168  167  168 1   
   169  167  172 1   
   170  168  169 1   
   171  168  170 1   
   172  168  171 1   
   173  174  175 1   
   174  174  176 1   
   175  177  178 1   
   176  177  179 1   
@<TRIPOS>SUBSTRUCTURE
     1 MOL         1 TEMP              0 ****  ****    0 ROOT
