@<TRIPOS>MOLECULE
MOL
  189   185     1     0     0
SMALL
resp


@<TRIPOS>ATOM
      1 C1          0.4470    1.9290    5.1860 c3        1 MOL     -0.236862
      2 C2         -0.2760    2.0550    3.8160 c         1 MOL      0.765870
      3 O1          0.3350    2.3710    2.7940 o         1 MOL     -0.589466
      4 H1          1.4260    2.4050    5.1240 hc        1 MOL      0.063074
      5 H2         -0.1470    2.4190    5.9570 hc        1 MOL      0.063074
      6 H3          0.5720    0.8750    5.4360 hc        1 MOL      0.063074
      7 N1         -1.5760    1.6840    3.7890 n         1 MOL     -0.780443
      8 C3         -2.3400    1.4710    2.5070 c3        1 MOL      0.633030
      9 C4         -2.7400    2.7990    1.8510 c         1 MOL      0.164742
     10 O2         -3.9600    3.0650    1.5760 o         1 MOL     -0.466042
     11 C5         -3.4940    0.5630    2.7720 c3        1 MOL     -0.102688
     12 C6         -4.1220    0.0720    1.4420 c         1 MOL      0.542377
     13 O3         -5.2490   -0.5120    1.4690 o         1 MOL     -0.606015
     14 O4         -3.5210    0.2170    0.3430 o         1 MOL     -0.606015
     15 H4         -2.0070    1.3170    4.6230 hn        1 MOL      0.329373
     16 H5         -1.7250    0.8870    1.8190 h1        1 MOL     -0.071461
     17 H6         -4.2270    1.1150    3.3540 hc        1 MOL      0.003948
     18 H7         -3.1480   -0.2340    3.4280 hc        1 MOL      0.003948
     19 N2         -1.8660    3.6650    1.3850 n         1 MOL     -0.103186
     20 C7         -2.1760    5.0170    1.0360 c3        1 MOL     -0.201554
     21 C8         -2.8850    5.1890   -0.3110 c         1 MOL      0.489063
     22 O5         -3.3290    6.2830   -0.6570 o         1 MOL     -0.573831
     23 C9         -0.8640    5.7960    1.0080 c3        1 MOL     -0.033843
     24 C10        -0.3820    6.1030    2.4270 c3        1 MOL      0.172462
     25 C11        -1.2890    7.0140    3.2500 c3        1 MOL     -0.187979
     26 C12        -1.6420    8.3000    2.4510 c3        1 MOL      0.192454
     27 N3         -2.2360    9.3770    3.3350 n4        1 MOL     -0.400934
     28 H8         -0.9140    3.4270    1.6240 hn        1 MOL      0.217413
     29 H9         -2.8610    5.4570    1.7580 h1        1 MOL      0.121676
     30 H10        -0.9940    6.6790    0.3910 hc        1 MOL      0.043115
     31 H11        -0.0310    5.1960    0.6480 hc        1 MOL      0.043115
     32 H12         0.5570    6.6370    2.2880 hc        1 MOL     -0.024266
     33 H13        -0.2550    5.1910    3.0130 hc        1 MOL     -0.024266
     34 H14        -0.8750    7.1890    4.2400 hc        1 MOL      0.056601
     35 H15        -2.2350    6.5240    3.5030 hc        1 MOL      0.056601
     36 H16        -2.3630    8.0840    1.6600 hx        1 MOL      0.032145
     37 H17        -0.7220    8.6400    1.9700 hx        1 MOL      0.032145
     38 H18        -2.0350   10.3110    3.0080 hn        1 MOL      0.330079
     39 H19        -3.2330    9.3910    3.1610 hn        1 MOL      0.330079
     40 H20        -2.1750    9.3420    4.3400 hn        1 MOL      0.330079
     41 N4         -3.2420    4.1150   -1.0150 n         1 MOL     -0.214593
     42 C13        -4.2070    4.0250   -2.1100 c3        1 MOL      0.085794
     43 C14        -5.4360    3.1080   -1.9190 c         1 MOL      0.371572
     44 O6         -6.2050    3.0740   -2.8910 o         1 MOL     -0.470823
     45 C15        -3.5530    3.7620   -3.4630 c3        1 MOL     -0.200739
     46 C16        -2.6310    2.5540   -3.3830 c         1 MOL      0.886792
     47 O7         -2.7720    1.6390   -2.5030 o         1 MOL     -0.723836
     48 O8         -1.6710    2.5320   -4.1000 o         1 MOL     -0.723836
     49 H21        -2.9000    3.2280   -0.6770 hn        1 MOL      0.127894
     50 H22        -4.6860    4.9990   -2.1880 h1        1 MOL      0.057076
     51 H23        -2.9300    4.6040   -3.7480 hc        1 MOL      0.040480
     52 H24        -4.3080    3.6290   -4.2400 hc        1 MOL      0.040480
     53 N5         -5.5930    2.3960   -0.7700 n         1 MOL     -0.151418
     54 C17        -6.8090    1.6480   -0.4630 c3        1 MOL     -0.093062
     55 C18        -7.1190    0.3990   -1.2760 c         1 MOL      0.374782
     56 O9         -7.9950    0.4360   -2.1510 o         1 MOL     -0.515414
     57 H25        -4.8160    2.4170   -0.1220 hn        1 MOL      0.124894
     58 H26        -7.6390    2.2870   -0.7830 h1        1 MOL      0.066244
     59 H27        -6.8720    1.6210    0.6270 h1        1 MOL      0.066244
     60 N6         -6.3140   -0.6670   -1.1800 n         1 MOL     -0.024334
     61 C19        -6.6650   -1.9530   -1.8250 c3        1 MOL      0.018039
     62 C20        -6.7030   -3.2280   -0.9400 c         1 MOL      0.265970
     63 O10        -6.8490   -4.4320   -1.3320 o         1 MOL     -0.494654
     64 C21        -5.7840   -2.1520   -3.0530 c3        1 MOL     -0.120702
     65 C22        -4.3250   -1.8320   -2.7520 c         1 MOL      0.783621
     66 O11        -3.7670   -2.2640   -1.7510 o         1 MOL     -0.780315
     67 O12        -3.6800   -1.0020   -3.4560 o         1 MOL     -0.780315
     68 H28        -5.5170   -0.7160   -0.5690 hn        1 MOL      0.080614
     69 H29        -7.6530   -1.8510   -2.2890 h1        1 MOL      0.080624
     70 H30        -6.2120   -1.4850   -3.7930 hc        1 MOL      0.038342
     71 H31        -5.8870   -3.1900   -3.3680 hc        1 MOL      0.038342
     72 N7         -6.6380   -2.9930    0.3340 n         1 MOL     -0.114160
     73 C23        -6.4930   -3.9160    1.4710 c3        1 MOL     -0.211800
     74 C24        -5.0410   -4.6070    1.4870 c         1 MOL      0.594359
     75 O13        -4.9370   -5.6730    2.0420 o         1 MOL     -0.563952
     76 H32        -6.5440   -2.0040    0.5220 hn        1 MOL      0.134638
     77 H33        -7.2150   -4.7050    1.2800 h1        1 MOL      0.114070
     78 H34        -6.5500   -3.4180    2.4460 h1        1 MOL      0.114070
     79 N8         -4.0640   -4.0700    0.7340 n         1 MOL     -0.414536
     80 C25        -2.7110   -4.7730    0.6850 c3        1 MOL     -0.082421
     81 C26        -1.4950   -3.8680    0.7130 c         1 MOL      0.509953
     82 O14        -1.4790   -2.7550    0.0870 o         1 MOL     -0.641097
     83 C27        -2.4830   -5.6680   -0.5560 c3        1 MOL      0.512433
     84 C28        -3.2570   -6.9630   -0.4880 c3        1 MOL     -0.505393
     85 O15        -2.9890   -5.0180   -1.6890 oh        1 MOL     -0.662428
     86 H35        -4.1160   -3.2090    0.2210 hn        1 MOL      0.340223
     87 H36        -2.5840   -5.4610    1.5190 h1        1 MOL      0.083862
     88 H37        -1.4090   -5.8560   -0.6050 h1        1 MOL     -0.070040
     89 H38        -2.8920   -4.0710   -1.5940 ho        1 MOL      0.471015
     90 H39        -2.9880   -7.5680   -1.3570 hc        1 MOL      0.133452
     91 H40        -2.8900   -7.4620    0.4100 hc        1 MOL      0.133452
     92 H41        -4.3380   -6.7920   -0.4910 hc        1 MOL      0.133452
     93 N9         -0.4560   -4.2920    1.5180 n         1 MOL     -0.488186
     94 C29         0.7520   -3.4470    1.7830 c3        1 MOL      0.009081
     95 C30         1.9440   -3.8820    0.9690 c         1 MOL      0.518427
     96 O16         2.4030   -5.0130    1.1730 o         1 MOL     -0.587344
     97 C31         1.0990   -3.5860    3.3430 c3        1 MOL      0.363663
     98 C32        -0.0220   -3.1330    4.2480 c3        1 MOL      0.326825
     99 C33         2.2930   -2.6160    3.5400 c3        1 MOL     -0.810368
    100 C34         0.2830   -3.3120    5.8090 c3        1 MOL     -0.231771
    101 H42        -0.4160   -5.2700    1.7870 hn        1 MOL      0.293474
    102 H43         0.6010   -2.4020    1.5040 h1        1 MOL      0.100412
    103 H44         1.3150   -4.6240    3.6100 hc        1 MOL     -0.054133
    104 H45        -0.8260   -3.8100    3.9680 hc        1 MOL     -0.100738
    105 H46        -0.3080   -2.1140    4.0110 hc        1 MOL     -0.100738
    106 H47         2.6250   -2.5000    4.5700 hc        1 MOL      0.184635
    107 H48         3.2040   -2.9320    3.0260 hc        1 MOL      0.184635
    108 H49         1.8670   -1.6570    3.2460 hc        1 MOL      0.184635
    109 H50         1.1410   -2.6950    6.0780 hc        1 MOL      0.040827
    110 H51        -0.6270   -2.9870    6.3180 hc        1 MOL      0.040827
    111 H52         0.3360   -4.3900    5.9880 hc        1 MOL      0.040827
    112 N10         2.4560   -2.9930    0.1720 n         1 MOL     -0.263141
    113 C35         3.6710   -3.2520   -0.6960 c3        1 MOL     -0.076530
    114 C36         4.9780   -2.8290   -0.0290 c         1 MOL      0.358594
    115 O17         4.9730   -2.0770    0.9360 o         1 MOL     -0.319766
    116 C37         3.5040   -2.4770   -2.0350 c3        1 MOL      0.473036
    117 C38         2.3880   -2.9190   -2.9300 c3        1 MOL     -0.563118
    118 O18         3.2980   -1.0870   -1.8070 oh        1 MOL     -0.609338
    119 H53         1.9610   -2.1170    0.1620 hn        1 MOL      0.233372
    120 H54         3.7200   -4.3280   -0.8780 h1        1 MOL      0.087541
    121 H55         4.4270   -2.6040   -2.6010 h1        1 MOL     -0.038183
    122 H56         2.4010   -1.0700   -1.4670 ho        1 MOL      0.389710
    123 H57         2.6310   -3.9790   -2.9790 hc        1 MOL      0.143175
    124 H58         1.4410   -2.7020   -2.4360 hc        1 MOL      0.143175
    125 H59         2.4050   -2.3880   -3.8830 hc        1 MOL      0.143175
    126 N11         6.0990   -3.1860   -0.6450 n         1 MOL     -0.260884
    127 C39         7.4620   -2.6930   -0.2470 c3        1 MOL     -0.216174
    128 C40         7.5010   -1.1830   -0.0550 c         1 MOL      0.288557
    129 O19         7.9870   -0.6840    0.9720 o         1 MOL     -0.457692
    130 C41         8.6250   -3.1200   -1.1560 c3        1 MOL      0.431922
    131 C42         8.9700   -4.6250   -0.9440 c3        1 MOL     -0.456675
    132 O20         8.3770   -2.9800   -2.4890 oh        1 MOL     -0.563546
    133 H60         5.9730   -3.8670   -1.3750 hn        1 MOL      0.250059
    134 H61         7.6320   -3.0320    0.7800 h1        1 MOL      0.151022
    135 H62         9.4890   -2.4940   -0.9510 h1        1 MOL      0.026356
    136 H63         8.8520   -2.1500   -2.5880 ho        1 MOL      0.343009
    137 H64         8.2960   -5.1900   -1.5830 hc        1 MOL      0.125355
    138 H65         9.9820   -4.9340   -1.1980 hc        1 MOL      0.125355
    139 H66         8.6880   -4.8700    0.0790 hc        1 MOL      0.125355
    140 N12         7.1790   -0.4480   -1.0970 n         1 MOL     -0.154406
    141 C43         7.1900    1.0370   -0.9570 c3        1 MOL     -0.252235
    142 C44         6.2560    1.5550    0.1470 c         1 MOL      0.485335
    143 O21         6.5620    2.5240    0.8540 o         1 MOL     -0.529148
    144 C45         6.9730    1.7230   -2.3020 c3        1 MOL     -0.076313
    145 C46         7.2060    3.2210   -2.3060 c3        1 MOL     -0.057028
    146 C47         7.0200    3.6830   -3.7710 c3        1 MOL     -0.043558
    147 C48         7.2670    5.1440   -3.7960 c3        1 MOL      0.135925
    148 N13         7.0710    5.8640   -5.0980 n4        1 MOL     -0.374986
    149 H67         6.8030   -0.8600   -1.9450 hn        1 MOL      0.217010
    150 H68         8.2100    1.3170   -0.6690 h1        1 MOL      0.147535
    151 H69         5.9850    1.4810   -2.6760 hc        1 MOL      0.055408
    152 H70         7.7030    1.2470   -2.9550 hc        1 MOL      0.055408
    153 H71         8.1590    3.5670   -1.9200 hc        1 MOL      0.069111
    154 H72         6.3720    3.6770   -1.7740 hc        1 MOL      0.069111
    155 H73         5.9850    3.5180   -4.0840 hc        1 MOL      0.038328
    156 H74         7.6680    3.0680   -4.3840 hc        1 MOL      0.038328
    157 H75         8.2690    5.2620   -3.3910 hx        1 MOL      0.049642
    158 H76         6.6270    5.6160   -3.0470 hx        1 MOL      0.049642
    159 H77         7.4690    6.7960   -5.0980 hn        1 MOL      0.296459
    160 H78         7.5880    5.3510   -5.8060 hn        1 MOL      0.296459
    161 H79         6.1010    5.9720   -5.3450 hn        1 MOL      0.296459
    162 N14         5.0470    0.9380    0.2570 n         1 MOL     -0.147057
    163 C49         4.0620    1.4480    1.2330 c3        1 MOL     -0.150541
    164 C50         4.4870    1.0880    2.7310 c         1 MOL      0.439274
    165 O22         4.1640    1.9040    3.6500 o         1 MOL     -0.563896
    166 C51         2.7800    0.7100    1.0150 c3        1 MOL      0.022250
    167 C52         1.9440    1.3840   -0.0340 c3        1 MOL     -0.177323
    168 C53         0.6260    0.6740   -0.3140 c         1 MOL      0.837731
    169 O23         0.5830   -0.5760   -0.4970 o         1 MOL     -0.752520
    170 O24        -0.4570    1.2810   -0.4870 o         1 MOL     -0.752520
    171 H80         4.9210    0.0200   -0.1370 hn        1 MOL      0.197232
    172 H81         3.8690    2.5140    1.1220 h1        1 MOL      0.130623
    173 H82         2.2300    0.6020    1.9490 hc        1 MOL     -0.019296
    174 H83         3.0420   -0.2640    0.5960 hc        1 MOL     -0.019296
    175 H84         2.4200    1.5400   -1.0040 hc        1 MOL      0.045016
    176 H85         1.7310    2.4010    0.3110 hc        1 MOL      0.045016
    177 N15         5.1480   -0.0380    3.0310 n         1 MOL     -0.029031
    178 C54         5.8040   -0.3750    4.2610 c3        1 MOL     -0.244483
    179 H86         6.7540    0.1570    4.3230 h1        1 MOL      0.091481
    180 H87         5.1720   -0.0870    5.1010 h1        1 MOL      0.091481
    181 H88         5.9860   -1.4490    4.2930 h1        1 MOL      0.091481
    182 H89         5.2810   -0.6760    2.2550 hn        1 MOL      0.124767
    183 Ca1        -1.8350   -0.6450   -1.5220 Ca        1 MOL      1.778700
    184 O25        -1.1820   -2.7510   -3.2130 oh        1 MOL     -0.852528
    185 H90        -0.6470   -2.6650   -4.0060 ho        1 MOL      0.397792
    186 H91        -1.8510   -3.3910   -3.4570 ho        1 MOL      0.397792
    187 O26        -0.1090    0.3300   -3.3120 oh        1 MOL     -0.852528
    188 H92        -0.6110    1.0910   -3.6250 ho        1 MOL      0.397792
    189 H93         0.1000   -0.1660   -4.1070 ho        1 MOL      0.397792
@<TRIPOS>BOND
     1    1    2 1   
     2    1    4 1   
     3    1    5 1   
     4    1    6 1   
     5    2    3 2   
     6    2    7 1   
     7    7    8 1   
     8    7   15 1   
     9    8    9 1   
    10    8   11 1   
    11    8   16 1   
    12    9   10 2   
    13    9   19 1   
    14   11   12 1   
    15   11   17 1   
    16   11   18 1   
    17   12   13 1   
    18   12   14 1   
    19   19   20 1   
    20   19   28 1   
    21   20   21 1   
    22   20   23 1   
    23   20   29 1   
    24   21   22 2   
    25   21   41 1   
    26   23   24 1   
    27   23   30 1   
    28   23   31 1   
    29   24   25 1   
    30   24   32 1   
    31   24   33 1   
    32   25   26 1   
    33   25   34 1   
    34   25   35 1   
    35   26   27 1   
    36   26   36 1   
    37   26   37 1   
    38   27   38 1   
    39   27   39 1   
    40   27   40 1   
    41   41   42 1   
    42   41   49 1   
    43   42   43 1   
    44   42   45 1   
    45   42   50 1   
    46   43   44 2   
    47   43   53 1   
    48   45   46 1   
    49   45   51 1   
    50   45   52 1   
    51   46   47 1   
    52   46   48 1   
    53   53   54 1   
    54   53   57 1   
    55   54   55 1   
    56   54   58 1   
    57   54   59 1   
    58   55   56 2   
    59   55   60 1   
    60   60   61 1   
    61   60   68 1   
    62   61   62 1   
    63   61   64 1   
    64   61   69 1   
    65   62   63 2   
    66   62   72 1   
    67   64   65 1   
    68   64   70 1   
    69   64   71 1   
    70   65   66 1   
    71   65   67 1   
    72   72   73 1   
    73   72   76 1   
    74   73   74 1   
    75   73   77 1   
    76   73   78 1   
    77   74   75 2   
    78   74   79 1   
    79   79   80 1   
    80   79   86 1   
    81   80   81 1   
    82   80   83 1   
    83   80   87 1   
    84   81   82 2   
    85   81   93 1   
    86   83   84 1   
    87   83   85 1   
    88   83   88 1   
    89   84   90 1   
    90   84   91 1   
    91   84   92 1   
    92   85   89 1   
    93   93   94 1   
    94   93  101 1   
    95   94   95 1   
    96   94   97 1   
    97   94  102 1   
    98   95   96 2   
    99   95  112 1   
   100   97   98 1   
   101   97   99 1   
   102   97  103 1   
   103   98  100 1   
   104   98  104 1   
   105   98  105 1   
   106   99  106 1   
   107   99  107 1   
   108   99  108 1   
   109  100  109 1   
   110  100  110 1   
   111  100  111 1   
   112  112  113 1   
   113  112  119 1   
   114  113  114 1   
   115  113  116 1   
   116  113  120 1   
   117  114  115 2   
   118  114  126 1   
   119  116  117 1   
   120  116  118 1   
   121  116  121 1   
   122  117  123 1   
   123  117  124 1   
   124  117  125 1   
   125  118  122 1   
   126  126  127 1   
   127  126  133 1   
   128  127  128 1   
   129  127  130 1   
   130  127  134 1   
   131  128  129 2   
   132  128  140 1   
   133  130  131 1   
   134  130  132 1   
   135  130  135 1   
   136  131  137 1   
   137  131  138 1   
   138  131  139 1   
   139  132  136 1   
   140  140  141 1   
   141  140  149 1   
   142  141  142 1   
   143  141  144 1   
   144  141  150 1   
   145  142  143 2   
   146  142  162 1   
   147  144  145 1   
   148  144  151 1   
   149  144  152 1   
   150  145  146 1   
   151  145  153 1   
   152  145  154 1   
   153  146  147 1   
   154  146  155 1   
   155  146  156 1   
   156  147  148 1   
   157  147  157 1   
   158  147  158 1   
   159  148  159 1   
   160  148  160 1   
   161  148  161 1   
   162  162  163 1   
   163  162  171 1   
   164  163  164 1   
   165  163  166 1   
   166  163  172 1   
   167  164  165 2   
   168  164  177 1   
   169  166  167 1   
   170  166  173 1   
   171  166  174 1   
   172  167  168 1   
   173  167  175 1   
   174  167  176 1   
   175  168  169 1   
   176  168  170 1   
   177  177  178 1   
   178  177  182 1   
   179  178  179 1   
   180  178  180 1   
   181  178  181 1   
   182  184  185 1   
   183  184  186 1   
   184  187  188 1   
   185  187  189 1   
@<TRIPOS>SUBSTRUCTURE
     1 MOL         1 TEMP              0 ****  ****    0 ROOT
