@<TRIPOS>MOLECULE
MOL
  182   178     1     0     0
SMALL
resp


@<TRIPOS>ATOM
      1 C1          1.0330    2.5670    6.6010 c3        1 MOL     -0.235082
      2 C2          0.8770    2.3080    5.1390 c         1 MOL      0.793947
      3 O1          1.9090    2.2360    4.4630 o         1 MOL     -0.613184
      4 H1          1.8520    3.2690    6.7600 hc        1 MOL      0.054622
      5 H2          0.1100    2.9910    6.9960 hc        1 MOL      0.054622
      6 H3          1.2530    1.6320    7.1150 hc        1 MOL      0.054622
      7 N1         -0.3500    2.1190    4.6630 n         1 MOL     -0.641560
      8 C3         -0.6560    1.8310    3.2390 c3        1 MOL     -0.212224
      9 C4         -0.8960    3.1900    2.6030 c         1 MOL      0.655486
     10 O2         -1.5290    4.0970    3.1960 o         1 MOL     -0.526159
     11 C5         -1.8260    0.8820    3.1800 c3        1 MOL      0.039806
     12 C6         -2.4430    0.5600    1.8010 c         1 MOL      0.578124
     13 O3         -1.9740    0.9910    0.7270 o         1 MOL     -0.727737
     14 O4         -3.5020   -0.0750    1.9520 o         1 MOL     -0.727737
     15 H4         -1.0870    1.9960    5.3530 hn        1 MOL      0.347128
     16 H5          0.1850    1.3380    2.7510 h1        1 MOL      0.092441
     17 H6         -2.5820    1.2530    3.8830 hc        1 MOL      0.036340
     18 H7         -1.6550   -0.0710    3.6750 hc        1 MOL      0.036340
     19 N2         -0.3190    3.4920    1.4050 n         1 MOL     -0.218178
     20 C7         -0.1970    4.8590    0.8200 c3        1 MOL     -0.223655
     21 C8         -1.5560    5.4340    0.4190 c         1 MOL      0.507381
     22 O5         -1.9330    6.5390    0.7880 o         1 MOL     -0.538179
     23 C9          0.8140    4.7050   -0.3460 c3        1 MOL     -0.168745
     24 C10         1.1930    6.1050   -0.9350 c3        1 MOL      0.364012
     25 C11         1.9020    5.9660   -2.3060 c3        1 MOL     -0.054373
     26 C12         2.2110    7.2680   -2.9110 c3        1 MOL      0.013783
     27 N3          1.1460    8.3190   -2.9990 n4        1 MOL     -0.462498
     28 H8          0.1640    2.7530    0.9100 hn        1 MOL      0.158473
     29 H9          0.2600    5.5140    1.5650 h1        1 MOL      0.138781
     30 H10         0.3780    4.0260   -1.0770 hc        1 MOL      0.088553
     31 H11         1.7660    4.2520   -0.0900 hc        1 MOL      0.088553
     32 H12         1.7820    6.7340   -0.2780 hc        1 MOL     -0.082757
     33 H13         0.2060    6.5560   -1.0510 hc        1 MOL     -0.082757
     34 H14         1.1520    5.4340   -2.8980 hc        1 MOL      0.008091
     35 H15         2.8180    5.3960   -2.1480 hc        1 MOL      0.008091
     36 H16         2.5260    7.0530   -3.9380 hx        1 MOL      0.101286
     37 H17         3.1360    7.6650   -2.4870 hx        1 MOL      0.101286
     38 H18         1.5010    9.1090   -3.5210 hn        1 MOL      0.357195
     39 H19         0.3320    7.9090   -3.4310 hn        1 MOL      0.357195
     40 H20         0.8800    8.6180   -2.0680 hn        1 MOL      0.357195
     41 N4         -2.4950    4.5440   -0.1580 n         1 MOL     -0.245243
     42 C13        -3.8340    4.8870   -0.6630 c3        1 MOL      0.015921
     43 C14        -4.9390    4.1220    0.1780 c         1 MOL      0.418130
     44 O6         -6.0800    4.1250   -0.2260 o         1 MOL     -0.500592
     45 C15        -3.8940    4.5630   -2.1700 c3        1 MOL     -0.426268
     46 C16        -3.5300    3.1510   -2.6300 c         1 MOL      0.773045
     47 O7         -3.0010    2.3490   -1.8030 o         1 MOL     -0.706145
     48 O8         -3.7410    2.8220   -3.8530 o         1 MOL     -0.706145
     49 H21        -2.1990    3.6060   -0.3810 hn        1 MOL      0.162503
     50 H22        -4.0480    5.9570   -0.5800 h1        1 MOL      0.103671
     51 H23        -3.2760    5.2650   -2.7390 hc        1 MOL      0.123937
     52 H24        -4.9360    4.6810   -2.4880 hc        1 MOL      0.123937
     53 N5         -4.5560    3.3630    1.2070 n         1 MOL     -0.189172
     54 C17        -5.6100    2.6390    1.9460 c3        1 MOL     -0.139166
     55 C18        -6.3460    1.5590    1.1520 c         1 MOL      0.506637
     56 O9         -7.5030    1.3070    1.4650 o         1 MOL     -0.568622
     57 H25        -3.5970    3.3850    1.5250 hn        1 MOL      0.170218
     58 H26        -6.3810    3.3080    2.3190 h1        1 MOL      0.096624
     59 H27        -5.0680    2.1670    2.7600 h1        1 MOL      0.096624
     60 N6         -5.8130    0.9580    0.0720 n         1 MOL     -0.204905
     61 C19        -6.5210   -0.0420   -0.7040 c3        1 MOL     -0.013475
     62 C20        -6.5980   -1.4000    0.0620 c         1 MOL      0.301793
     63 O10        -7.2770   -2.3210   -0.4680 o         1 MOL     -0.501204
     64 C21        -5.8780   -0.1450   -2.1010 c3        1 MOL     -0.119229
     65 C22        -4.4340   -0.7560   -2.1510 c         1 MOL      0.664424
     66 N7         -4.1850   -1.5560   -3.1580 n         1 MOL     -0.971981
     67 O11        -3.6050   -0.5870   -1.3030 o         1 MOL     -0.598302
     68 H28        -4.9100    1.3500   -0.1950 hn        1 MOL      0.285440
     69 H29        -7.5240    0.3630   -0.8350 h1        1 MOL      0.114809
     70 H30        -5.8460    0.9040   -2.3640 hc        1 MOL      0.060401
     71 H31        -6.5570   -0.6690   -2.7700 hc        1 MOL      0.060401
     72 H32        -4.9630   -1.8880   -3.7030 hn        1 MOL      0.430729
     73 H33        -3.2180   -1.8400   -3.2940 hn        1 MOL      0.430729
     74 N8         -5.9760   -1.6050    1.1980 n         1 MOL     -0.081149
     75 C23        -5.7790   -2.8700    1.9390 c3        1 MOL     -0.502510
     76 C24        -4.4040   -3.4800    1.7290 c         1 MOL      0.776087
     77 O12        -4.2650   -4.5630    2.3330 o         1 MOL     -0.585446
     78 H34        -5.5380   -0.8200    1.6600 hn        1 MOL      0.248697
     79 H35        -6.4700   -3.6580    1.6400 h1        1 MOL      0.202321
     80 H36        -5.8890   -2.6060    2.9890 h1        1 MOL      0.202321
     81 N9         -3.4230   -2.9230    0.9900 n         1 MOL     -0.660641
     82 C25        -2.2320   -3.6850    0.6300 c3        1 MOL      0.056506
     83 C26        -0.9690   -2.7500    0.5800 c         1 MOL      0.624502
     84 O13        -0.9390   -1.7890   -0.1160 o         1 MOL     -0.590286
     85 C27        -2.4340   -4.3190   -0.7530 c3        1 MOL      0.404225
     86 C28        -3.5710   -5.2320   -0.9900 ca        1 MOL     -0.372839
     87 C29        -4.7930   -4.6570   -1.2290 ca        1 MOL      0.071979
     88 C30        -3.4610   -6.6200   -0.7920 ca        1 MOL      0.071979
     89 C31        -5.8830   -5.4940   -1.3700 ca        1 MOL     -0.350029
     90 C32        -4.5630   -7.4880   -0.8680 ca        1 MOL     -0.350029
     91 C33        -5.7990   -6.8880   -1.1850 ca        1 MOL      0.422551
     92 O14        -6.9190   -7.6840   -1.3560 oh        1 MOL     -0.499831
     93 H37        -3.4790   -1.9370    0.8010 hn        1 MOL      0.452409
     94 H38        -2.0940   -4.5430    1.2800 h1        1 MOL      0.042970
     95 H39        -1.5120   -4.8560   -0.9910 hc        1 MOL     -0.071173
     96 H40        -2.4650   -3.4550   -1.4150 hc        1 MOL     -0.071173
     97 H41        -4.9920   -3.6080   -1.3960 ha        1 MOL      0.073397
     98 H42        -2.4950   -7.0750   -0.6750 ha        1 MOL      0.073397
     99 H43        -6.8580   -5.1220   -1.6530 ha        1 MOL      0.154428
    100 H44        -4.4640   -8.5650   -0.7620 ha        1 MOL      0.154428
    101 H45        -6.6220   -8.5960   -1.4340 ho        1 MOL      0.350130
    102 N10         0.1700   -3.1960    1.2170 n         1 MOL     -0.576568
    103 C34         1.4720   -2.5200    1.2910 c3        1 MOL      0.003723
    104 C35         2.5220   -3.2480    0.3910 c         1 MOL      0.462901
    105 O15         2.7710   -4.4360    0.4840 o         1 MOL     -0.526839
    106 C36         2.0270   -2.1500    2.6560 c3        1 MOL      0.295892
    107 C37         2.5810   -3.3730    3.4670 c3        1 MOL     -0.383569
    108 C38         0.9870   -1.3200    3.4850 c3        1 MOL     -0.630523
    109 C39         3.1770   -2.9290    4.8010 c3        1 MOL     -0.044994
    110 H46         0.0910   -4.0630    1.7320 hn        1 MOL      0.310483
    111 H47         1.3550   -1.5620    0.7790 h1        1 MOL      0.130059
    112 H48         2.9330   -1.5530    2.5530 hc        1 MOL     -0.073793
    113 H49         3.4170   -3.8160    2.9150 hc        1 MOL      0.125702
    114 H50         1.7290   -4.0210    3.6930 hc        1 MOL      0.125702
    115 H51         1.5130   -0.4880    3.9540 hc        1 MOL      0.186694
    116 H52         0.1910   -1.0330    2.7930 hc        1 MOL      0.186694
    117 H53         0.6350   -1.8700    4.3600 hc        1 MOL      0.186694
    118 H54         2.3730   -2.7590    5.5200 hc        1 MOL      0.029442
    119 H55         3.8780   -3.6350    5.2560 hc        1 MOL      0.029442
    120 H56         3.7030   -1.9760    4.7950 hc        1 MOL      0.029442
    121 N11         3.0110   -2.4640   -0.6270 n         1 MOL     -0.092073
    122 C40         4.0500   -2.9980   -1.5850 c3        1 MOL     -0.050469
    123 C41         5.4820   -3.0220   -0.9940 c         1 MOL      0.393962
    124 O16         5.6910   -2.5740    0.1490 o         1 MOL     -0.377678
    125 C42         3.9670   -2.1390   -2.8520 c3        1 MOL     -0.323595
    126 O17         4.4830   -0.8210   -2.5920 oh        1 MOL     -0.447731
    127 H57         2.7040   -1.4980   -0.6960 hn        1 MOL      0.041660
    128 H58         3.8410   -4.0120   -1.9290 h1        1 MOL      0.094264
    129 H59         2.9490   -2.0620   -3.2440 h1        1 MOL      0.177610
    130 H60         4.6200   -2.5220   -3.6410 h1        1 MOL      0.177610
    131 H61         3.7060   -0.3110   -2.3540 ho        1 MOL      0.348800
    132 N12         6.4870   -3.6100   -1.6480 n         1 MOL     -0.346019
    133 C43         7.8370   -3.4720   -1.1140 c3        1 MOL      0.001823
    134 C44         8.3120   -2.0280   -1.0900 c         1 MOL      0.604351
    135 O18         8.9340   -1.6940   -0.1630 o         1 MOL     -0.528379
    136 C45         8.8590   -4.2500   -1.9790 c3        1 MOL     -0.314398
    137 H62         6.3960   -4.1020   -2.5210 hn        1 MOL      0.287062
    138 H63         7.8680   -3.8920   -0.1080 h1        1 MOL      0.116584
    139 H64         9.8340   -4.0180   -1.5480 hc        1 MOL      0.094867
    140 H65         8.6660   -5.3220   -1.9810 hc        1 MOL      0.094867
    141 H66         8.9080   -3.9900   -3.0420 hc        1 MOL      0.094867
    142 N13         7.8350   -1.1560   -1.9190 n         1 MOL     -0.476766
    143 C46         8.2000    0.2430   -1.9260 c3        1 MOL      0.189560
    144 C47         7.4900    0.9820   -0.7690 c         1 MOL      0.290542
    145 O19         8.0700    1.7710   -0.0180 o         1 MOL     -0.458008
    146 C48         7.7770    0.8770   -3.2700 c3        1 MOL     -0.335384
    147 H67         7.1520   -1.3580   -2.6300 hn        1 MOL      0.278453
    148 H68         9.2550    0.4210   -1.6970 h1        1 MOL      0.075578
    149 H69         8.3970    0.4750   -4.0750 hc        1 MOL      0.087833
    150 H70         6.6960    0.8300   -3.3770 hc        1 MOL      0.087833
    151 H71         7.9520    1.9530   -3.2330 hc        1 MOL      0.087833
    152 N14         6.1550    0.5980   -0.5140 n         1 MOL     -0.021587
    153 C49         5.4100    1.1410    0.6760 c3        1 MOL     -0.246201
    154 C50         5.9680    0.6960    1.9720 c         1 MOL      0.456397
    155 O20         6.2290    1.5600    2.8650 o         1 MOL     -0.539886
    156 C51         3.9390    0.8490    0.6030 c3        1 MOL      0.086878
    157 C52         3.2860    1.5370   -0.6280 c3        1 MOL     -0.112636
    158 C53         1.9520    0.9310   -0.9750 c         1 MOL      0.682560
    159 O21         1.9500   -0.0370   -1.8260 o         1 MOL     -0.692999
    160 O22         0.8950    1.3310   -0.5110 o         1 MOL     -0.692999
    161 H72         5.7800   -0.1630   -1.0700 hn        1 MOL      0.086752
    162 H73         5.4870    2.2240    0.6730 h1        1 MOL      0.116376
    163 H74         3.3760    1.1600    1.4800 hc        1 MOL      0.065099
    164 H75         3.8570   -0.2170    0.4220 hc        1 MOL      0.065099
    165 H76         3.9180    1.5460   -1.5100 hc        1 MOL      0.012317
    166 H77         3.0720    2.5570   -0.3140 hc        1 MOL      0.012317
    167 N15         6.3220   -0.6000    2.1640 n         1 MOL     -0.013274
    168 C54         6.9730   -1.1420    3.3470 c3        1 MOL     -0.309263
    169 H78         7.5170   -0.3480    3.8570 h1        1 MOL      0.113889
    170 H79         6.2210   -1.5570    4.0180 h1        1 MOL      0.113889
    171 H80         7.6690   -1.9280    3.0510 h1        1 MOL      0.113889
    172 H81         6.3310   -1.2270    1.3660 hn        1 MOL      0.104725
    173 Ca1        -1.1210    0.4670   -1.5410 Ca        1 MOL      1.806938
    174 O23        -0.0740    2.2530   -3.3450 oh        1 MOL     -0.873070
    175 H82        -0.5780    2.1160   -4.1500 ho        1 MOL      0.415603
    176 H83         0.5770    2.9060   -3.5860 ho        1 MOL      0.415603
    177 O24        -0.8070   -1.5140   -3.4460 oh        1 MOL     -0.873070
    178 H84        -0.5580   -2.3910   -3.7440 ho        1 MOL      0.415603
    179 H85        -0.9010   -1.0060   -4.2550 ho        1 MOL      0.415603
    180 O25        -2.2390    0.7060   -4.3660 oh        1 MOL     -0.873070
    181 H86        -2.8330    1.4450   -4.2250 ho        1 MOL      0.415603
    182 H87        -2.7740    0.0590   -4.8230 ho        1 MOL      0.415603
@<TRIPOS>BOND
     1    1    2 1   
     2    1    4 1   
     3    1    5 1   
     4    1    6 1   
     5    2    3 2   
     6    2    7 1   
     7    7    8 1   
     8    7   15 1   
     9    8    9 1   
    10    8   11 1   
    11    8   16 1   
    12    9   10 2   
    13    9   19 1   
    14   11   12 1   
    15   11   17 1   
    16   11   18 1   
    17   12   13 1   
    18   12   14 1   
    19   19   20 1   
    20   19   28 1   
    21   20   21 1   
    22   20   23 1   
    23   20   29 1   
    24   21   22 2   
    25   21   41 1   
    26   23   24 1   
    27   23   30 1   
    28   23   31 1   
    29   24   25 1   
    30   24   32 1   
    31   24   33 1   
    32   25   26 1   
    33   25   34 1   
    34   25   35 1   
    35   26   27 1   
    36   26   36 1   
    37   26   37 1   
    38   27   38 1   
    39   27   39 1   
    40   27   40 1   
    41   41   42 1   
    42   41   49 1   
    43   42   43 1   
    44   42   45 1   
    45   42   50 1   
    46   43   44 2   
    47   43   53 1   
    48   45   46 1   
    49   45   51 1   
    50   45   52 1   
    51   46   47 1   
    52   46   48 1   
    53   53   54 1   
    54   53   57 1   
    55   54   55 1   
    56   54   58 1   
    57   54   59 1   
    58   55   56 2   
    59   55   60 1   
    60   60   61 1   
    61   60   68 1   
    62   61   62 1   
    63   61   64 1   
    64   61   69 1   
    65   62   63 2   
    66   62   74 1   
    67   64   65 1   
    68   64   70 1   
    69   64   71 1   
    70   65   66 1   
    71   65   67 2   
    72   66   72 1   
    73   66   73 1   
    74   74   75 1   
    75   74   78 1   
    76   75   76 1   
    77   75   79 1   
    78   75   80 1   
    79   76   77 2   
    80   76   81 1   
    81   81   82 1   
    82   81   93 1   
    83   82   83 1   
    84   82   85 1   
    85   82   94 1   
    86   83   84 2   
    87   83  102 1   
    88   85   86 1   
    89   85   95 1   
    90   85   96 1   
    91   86   87 ar  
    92   86   88 ar  
    93   87   89 ar  
    94   87   97 1   
    95   88   90 ar  
    96   88   98 1   
    97   89   91 ar  
    98   89   99 1   
    99   90   91 ar  
   100   90  100 1   
   101   91   92 1   
   102   92  101 1   
   103  102  103 1   
   104  102  110 1   
   105  103  104 1   
   106  103  106 1   
   107  103  111 1   
   108  104  105 2   
   109  104  121 1   
   110  106  107 1   
   111  106  108 1   
   112  106  112 1   
   113  107  109 1   
   114  107  113 1   
   115  107  114 1   
   116  108  115 1   
   117  108  116 1   
   118  108  117 1   
   119  109  118 1   
   120  109  119 1   
   121  109  120 1   
   122  121  122 1   
   123  121  127 1   
   124  122  123 1   
   125  122  125 1   
   126  122  128 1   
   127  123  124 2   
   128  123  132 1   
   129  125  126 1   
   130  125  129 1   
   131  125  130 1   
   132  126  131 1   
   133  132  133 1   
   134  132  137 1   
   135  133  134 1   
   136  133  136 1   
   137  133  138 1   
   138  134  135 2   
   139  134  142 1   
   140  136  139 1   
   141  136  140 1   
   142  136  141 1   
   143  142  143 1   
   144  142  147 1   
   145  143  144 1   
   146  143  146 1   
   147  143  148 1   
   148  144  145 2   
   149  144  152 1   
   150  146  149 1   
   151  146  150 1   
   152  146  151 1   
   153  152  153 1   
   154  152  161 1   
   155  153  154 1   
   156  153  156 1   
   157  153  162 1   
   158  154  155 2   
   159  154  167 1   
   160  156  157 1   
   161  156  163 1   
   162  156  164 1   
   163  157  158 1   
   164  157  165 1   
   165  157  166 1   
   166  158  159 1   
   167  158  160 1   
   168  167  168 1   
   169  167  172 1   
   170  168  169 1   
   171  168  170 1   
   172  168  171 1   
   173  174  175 1   
   174  174  176 1   
   175  177  178 1   
   176  177  179 1   
   177  180  181 1   
   178  180  182 1   
@<TRIPOS>SUBSTRUCTURE
     1 MOL         1 TEMP              0 ****  ****    0 ROOT
