@<TRIPOS>MOLECULE
MOL
  179   176     1     0     0
SMALL
resp


@<TRIPOS>ATOM
      1 C1          0.8900    4.0670    5.2980 c3        1 MOL     -0.353778
      2 C2          0.6690    3.6560    3.8850 c         1 MOL      0.709355
      3 O1          1.4590    3.9100    2.9660 o         1 MOL     -0.628307
      4 H1          0.5640    5.0990    5.4310 hc        1 MOL      0.087275
      5 H2          0.3170    3.4170    5.9590 hc        1 MOL      0.087275
      6 H3          1.9500    3.9880    5.5390 hc        1 MOL      0.087275
      7 N1         -0.4680    3.1700    3.6530 n         1 MOL     -0.563880
      8 C3         -1.0120    2.8940    2.3060 c3        1 MOL     -0.050647
      9 C4         -1.5300    4.2120    1.7630 c         1 MOL      0.770357
     10 O2         -2.3700    4.8550    2.3710 o         1 MOL     -0.573988
     11 C5         -2.1390    1.8510    2.4120 c3        1 MOL     -0.091430
     12 C6         -2.5630    1.3480    1.0400 c         1 MOL      0.868780
     13 O3         -2.0190    1.8320    0.0500 o         1 MOL     -0.817276
     14 O4         -3.4160    0.4730    0.8840 o         1 MOL     -0.817276
     15 H4         -1.0300    3.0360    4.4790 hn        1 MOL      0.336726
     16 H5         -0.2610    2.5170    1.6080 h1        1 MOL      0.082919
     17 H6         -3.0150    2.2780    2.8960 hc        1 MOL      0.024327
     18 H7         -1.7680    0.9600    2.9150 hc        1 MOL      0.024327
     19 N2         -1.0690    4.6500    0.5630 n         1 MOL     -0.652018
     20 C7         -1.3650    6.0180    0.0170 c3        1 MOL      0.035708
     21 C8         -2.5110    5.9470   -1.0380 c         1 MOL      0.508494
     22 O5         -2.9790    6.9630   -1.5270 o         1 MOL     -0.561918
     23 C9         -0.1520    6.6330   -0.5760 c3        1 MOL     -0.230204
     24 C10         0.8470    7.0710    0.5490 c3        1 MOL      0.328659
     25 C11         1.9080    7.9820    0.0210 c3        1 MOL     -0.184169
     26 C12         2.9160    8.5070    1.0320 c3        1 MOL      0.092096
     27 N3          4.1550    9.0560    0.3880 n4        1 MOL     -0.289104
     28 H8         -0.4600    4.0610    0.0170 hn        1 MOL      0.365815
     29 H9         -1.7160    6.6700    0.8170 h1        1 MOL      0.092286
     30 H10        -0.4770    7.4730   -1.2030 hc        1 MOL      0.077089
     31 H11         0.3690    5.9570   -1.2600 hc        1 MOL      0.077089
     32 H12         1.2330    6.1850    1.0450 hc        1 MOL     -0.019700
     33 H13         0.2870    7.6230    1.3140 hc        1 MOL     -0.019700
     34 H14         1.3970    8.8880   -0.2840 hc        1 MOL      0.043366
     35 H15         2.4650    7.4210   -0.7430 hc        1 MOL      0.043366
     36 H16         3.1170    7.6890    1.7100 hx        1 MOL      0.059840
     37 H17         2.4600    9.3950    1.4830 hx        1 MOL      0.059840
     38 H18         4.7290    8.2810    0.1000 hn        1 MOL      0.309939
     39 H19         3.9070    9.6190   -0.4090 hn        1 MOL      0.309939
     40 H20         4.7760    9.5480    1.0190 hn        1 MOL      0.309939
     41 N4         -2.9820    4.7540   -1.3270 n         1 MOL     -0.257707
     42 C13        -4.1470    4.4440   -2.1700 c3        1 MOL      0.051276
     43 C14        -5.3400    3.8780   -1.3990 c         1 MOL      0.267982
     44 O6         -6.4930    3.7940   -1.7940 o         1 MOL     -0.493893
     45 C15        -3.8790    3.6210   -3.4000 c3        1 MOL     -0.242586
     46 C16        -2.9190    2.4680   -3.0180 c         1 MOL      0.703610
     47 O7         -3.4840    1.5030   -2.4420 o         1 MOL     -0.679702
     48 O8         -1.7160    2.5120   -3.4280 o         1 MOL     -0.679702
     49 H21        -2.4980    3.9490   -0.9470 hn        1 MOL      0.229819
     50 H22        -4.5370    5.3440   -2.6490 h1        1 MOL      0.105471
     51 H23        -3.4030    4.2980   -4.1230 hc        1 MOL      0.066529
     52 H24        -4.7820    3.2230   -3.8670 hc        1 MOL      0.066529
     53 N5         -4.9130    3.2720   -0.2960 n         1 MOL      0.110917
     54 C17        -5.8280    2.6850    0.6810 c3        1 MOL     -0.394487
     55 C18        -6.5990    1.4250    0.1890 c         1 MOL      0.672621
     56 O9         -7.6960    1.2270    0.6260 o         1 MOL     -0.558625
     57 H25        -3.9460    3.4390   -0.0790 hn        1 MOL      0.014825
     58 H26        -6.5540    3.4630    0.9060 h1        1 MOL      0.141485
     59 H27        -5.1140    2.4230    1.4530 h1        1 MOL      0.141485
     60 N6         -5.9320    0.5710   -0.6430 n         1 MOL     -0.326691
     61 C19        -6.4490   -0.7260   -1.0200 c3        1 MOL      0.014645
     62 C20        -6.3850   -1.7780    0.1200 c         1 MOL      0.314110
     63 O10        -7.1730   -2.7290    0.0040 o         1 MOL     -0.517214
     64 C21        -5.7650   -1.1610   -2.2880 c3        1 MOL     -0.223244
     65 C22        -4.6040   -2.0250   -2.0470 c         1 MOL      0.384476
     66 N7         -4.5180   -3.1520   -2.7390 n         1 MOL     -0.530181
     67 O11        -3.6950   -1.6920   -1.3490 o         1 MOL     -0.468063
     68 H28        -4.9510    0.7900   -0.7130 hn        1 MOL      0.186278
     69 H29        -7.5040   -0.4890   -1.1560 h1        1 MOL      0.100503
     70 H30        -5.4620   -0.3390   -2.9290 hc        1 MOL      0.111360
     71 H31        -6.5190   -1.7650   -2.7870 hc        1 MOL      0.111360
     72 H32        -5.2010   -3.3240   -3.4650 hn        1 MOL      0.288313
     73 H33        -3.6370   -3.6560   -2.7720 hn        1 MOL      0.288313
     74 N8         -5.5590   -1.5420    1.0840 n         1 MOL      0.100805
     75 C23        -5.4560   -2.2080    2.3630 c3        1 MOL     -0.421683
     76 C24        -4.1770   -3.0950    2.4540 c         1 MOL      0.720469
     77 O12        -4.0050   -3.8790    3.3950 o         1 MOL     -0.576125
     78 H34        -5.0280   -0.7010    0.9140 hn        1 MOL      0.086118
     79 H35        -6.3120   -2.8610    2.5220 h1        1 MOL      0.154714
     80 H36        -5.5290   -1.4780    3.1720 h1        1 MOL      0.154714
     81 N9         -3.2490   -2.8980    1.4860 n         1 MOL     -0.846406
     82 C25        -1.9620   -3.5870    1.4260 c3        1 MOL      0.585541
     83 C26        -0.8120   -2.6420    1.1140 c         1 MOL      0.218966
     84 O13        -1.0530   -1.5420    0.5730 o         1 MOL     -0.560736
     85 C27        -2.0490   -4.6930    0.3710 c3        1 MOL     -0.284306
     86 C28        -3.1910   -5.5930    0.4920 ca        1 MOL      0.145922
     87 C29        -4.4660   -5.3550   -0.0400 ca        1 MOL     -0.156688
     88 C30        -2.8740   -6.8490    1.0510 ca        1 MOL     -0.156688
     89 C31        -5.4110   -6.4050    0.0190 ca        1 MOL     -0.316526
     90 C32        -3.8240   -7.8440    1.0430 ca        1 MOL     -0.316526
     91 C33        -5.0680   -7.6180    0.5660 ca        1 MOL      0.440156
     92 O14        -6.0370   -8.5690    0.6060 oh        1 MOL     -0.534718
     93 H37        -3.5340   -2.3220    0.7070 hn        1 MOL      0.646534
     94 H38        -1.7040   -4.0610    2.3670 h1        1 MOL     -0.027622
     95 H39        -1.1010   -5.2220    0.2910 hc        1 MOL      0.029124
     96 H40        -2.1840   -4.1950   -0.5880 hc        1 MOL      0.029124
     97 H41        -4.6250   -4.3950   -0.5110 ha        1 MOL      0.118747
     98 H42        -1.9600   -7.0110    1.5980 ha        1 MOL      0.118747
     99 H43        -6.3520   -6.1480   -0.4280 ha        1 MOL      0.156656
    100 H44        -3.5470   -8.7100    1.6060 ha        1 MOL      0.156656
    101 H45        -5.8800   -9.4740    0.8580 ho        1 MOL      0.374881
    102 N10         0.3650   -2.9270    1.4740 n         1 MOL     -0.238446
    103 C34         1.6680   -2.3000    1.0810 c3        1 MOL     -0.305881
    104 C35         2.7180   -3.4320    0.7320 c         1 MOL      0.650341
    105 O15         2.8850   -4.3320    1.5040 o         1 MOL     -0.553981
    106 C36         2.1740   -1.3390    2.2120 c3        1 MOL      0.163577
    107 C37         2.3290   -1.9320    3.5990 c3        1 MOL      0.093264
    108 C38         1.3660   -0.0120    2.1960 c3        1 MOL     -0.579337
    109 C39         2.4660   -1.0250    4.7720 c3        1 MOL     -0.217530
    110 H46         0.4650   -3.7140    2.0890 hn        1 MOL      0.251923
    111 H47         1.5320   -1.6410    0.2240 h1        1 MOL      0.215096
    112 H48         3.1750   -1.0530    1.9060 hc        1 MOL     -0.063473
    113 H49         3.1990   -2.5870    3.5870 hc        1 MOL      0.005340
    114 H50         1.4980   -2.6040    3.8250 hc        1 MOL      0.005340
    115 H51         1.0800    0.3690    1.2140 hc        1 MOL      0.183694
    116 H52         0.4230   -0.2850    2.6480 hc        1 MOL      0.183694
    117 H53         1.8630    0.7630    2.7850 hc        1 MOL      0.183694
    118 H54         3.3280   -0.3930    4.5550 hc        1 MOL      0.049034
    119 H55         1.5910   -0.3860    4.7320 hc        1 MOL      0.049034
    120 H56         2.6080   -1.5460    5.7270 hc        1 MOL      0.049034
    121 N11         3.3420   -3.3470   -0.3970 n         1 MOL     -0.462793
    122 C40         4.5400   -4.0120   -0.6970 c3        1 MOL      0.131140
    123 C41         5.8250   -3.4170   -0.1280 c         1 MOL      0.400136
    124 O16         5.7570   -2.2290    0.2740 o         1 MOL     -0.338405
    125 C42         4.6440   -4.0160   -2.2150 c3        1 MOL     -0.166786
    126 O17         4.6740   -2.6440   -2.7190 oh        1 MOL     -0.505699
    127 H57         3.1920   -2.5040   -0.9340 hn        1 MOL      0.292083
    128 H58         4.5080   -5.0480   -0.3480 h1        1 MOL      0.070030
    129 H59         3.8300   -4.5940   -2.6540 h1        1 MOL      0.106557
    130 H60         5.5070   -4.6280   -2.4660 h1        1 MOL      0.106557
    131 H61         4.9100   -2.6300   -3.6580 ho        1 MOL      0.409544
    132 N12         6.9780   -4.0600   -0.2110 n         1 MOL     -0.459642
    133 C43         8.2560   -3.4100    0.1270 c3        1 MOL      0.279755
    134 C44         8.4890   -1.9530   -0.4800 c         1 MOL      0.383372
    135 O18         9.1040   -1.0860    0.1160 o         1 MOL     -0.491608
    136 C45         9.3040   -4.4350   -0.2910 c3        1 MOL     -0.383873
    137 H62         6.9670   -5.0550   -0.3720 hn        1 MOL      0.289943
    138 H63         8.3450   -3.2700    1.2030 h1        1 MOL      0.043176
    139 H64         9.1480   -4.6790   -1.3430 hc        1 MOL      0.110310
    140 H65        10.3170   -4.0800   -0.1340 hc        1 MOL      0.110310
    141 H66         9.2180   -5.2720    0.4040 hc        1 MOL      0.110310
    142 N13         8.1350   -1.7470   -1.7350 n         1 MOL     -0.411203
    143 C46         8.1860   -0.3740   -2.3500 c3        1 MOL      0.294320
    144 C47         7.2270    0.5700   -1.5610 c         1 MOL      0.321005
    145 O19         7.6860    1.6640   -1.1020 o         1 MOL     -0.506521
    146 C48         7.7370   -0.5820   -3.8430 c3        1 MOL     -0.433661
    147 H67         7.7900   -2.5190   -2.2860 hn        1 MOL      0.262391
    148 H68         9.1510    0.1200   -2.4360 h1        1 MOL      0.065970
    149 H69         8.6300   -1.0830   -4.2180 hc        1 MOL      0.110493
    150 H70         6.8720   -1.2210   -3.9920 hc        1 MOL      0.110493
    151 H71         7.6580    0.4290   -4.2340 hc        1 MOL      0.110493
    152 N14         5.8910    0.3150   -1.3630 n         1 MOL     -0.227691
    153 C49         5.0400    1.1920   -0.6080 c3        1 MOL     -0.052051
    154 C50         5.5080    1.3450    0.9140 c         1 MOL      0.364618
    155 O20         5.3910    2.4060    1.5890 o         1 MOL     -0.546183
    156 C51         3.5870    0.6770   -0.7230 c3        1 MOL      0.060518
    157 C52         2.9780    0.5760   -2.0780 c3        1 MOL     -0.194005
    158 C53         1.4430    0.3320   -2.1530 c         1 MOL      0.693499
    159 O21         0.9270   -0.1330   -3.2080 o         1 MOL     -0.711118
    160 O22         0.6850    0.7020   -1.2170 o         1 MOL     -0.711118
    161 H72         5.6280   -0.6210   -1.6320 hn        1 MOL      0.191464
    162 H73         5.0480    2.2090   -0.9930 h1        1 MOL      0.104064
    163 H74         3.0430    1.3190   -0.0280 hc        1 MOL      0.036523
    164 H75         3.5050   -0.3220   -0.2800 hc        1 MOL      0.036523
    165 H76         3.5560   -0.0800   -2.7260 hc        1 MOL      0.026830
    166 H77         3.1530    1.5580   -2.5180 hc        1 MOL      0.026830
    167 N15         6.1570    0.3190    1.4120 n         1 MOL      0.163069
    168 C54         6.7910    0.4060    2.7240 c3        1 MOL     -0.366106
    169 H78         6.3020    1.1840    3.3120 h1        1 MOL      0.117657
    170 H79         6.6970   -0.5510    3.2380 h1        1 MOL      0.117657
    171 H80         7.8460    0.6520    2.6030 h1        1 MOL      0.117657
    172 H81         6.2130   -0.5620    0.9230 hn        1 MOL      0.002881
    173 Ca1        -1.6900   -0.0890   -1.5540 Ca        1 MOL      1.694671
    174 O23        -0.5590   -2.5180   -2.2320 oh        1 MOL     -0.800225
    175 H82        -0.9150   -2.9790   -2.9880 ho        1 MOL      0.398325
    176 H83         0.0910   -3.1220   -1.8760 ho        1 MOL      0.398325
    177 O24        -2.3300   -0.7290   -4.0130 oh        1 MOL     -0.800225
    178 H84        -2.0460   -1.4540   -4.5700 ho        1 MOL      0.398325
    179 H85        -2.9690   -0.2560   -4.5400 ho        1 MOL      0.398325
@<TRIPOS>BOND
     1    1    2 1   
     2    1    4 1   
     3    1    5 1   
     4    1    6 1   
     5    2    3 2   
     6    2    7 1   
     7    7    8 1   
     8    7   15 1   
     9    8    9 1   
    10    8   11 1   
    11    8   16 1   
    12    9   10 2   
    13    9   19 1   
    14   11   12 1   
    15   11   17 1   
    16   11   18 1   
    17   12   13 1   
    18   12   14 1   
    19   19   20 1   
    20   19   28 1   
    21   20   21 1   
    22   20   23 1   
    23   20   29 1   
    24   21   22 2   
    25   21   41 1   
    26   23   24 1   
    27   23   30 1   
    28   23   31 1   
    29   24   25 1   
    30   24   32 1   
    31   24   33 1   
    32   25   26 1   
    33   25   34 1   
    34   25   35 1   
    35   26   27 1   
    36   26   36 1   
    37   26   37 1   
    38   27   38 1   
    39   27   39 1   
    40   27   40 1   
    41   41   42 1   
    42   41   49 1   
    43   42   43 1   
    44   42   45 1   
    45   42   50 1   
    46   43   44 2   
    47   43   53 1   
    48   45   46 1   
    49   45   51 1   
    50   45   52 1   
    51   46   47 1   
    52   46   48 1   
    53   53   54 1   
    54   53   57 1   
    55   54   55 1   
    56   54   58 1   
    57   54   59 1   
    58   55   56 2   
    59   55   60 1   
    60   60   61 1   
    61   60   68 1   
    62   61   62 1   
    63   61   64 1   
    64   61   69 1   
    65   62   63 2   
    66   62   74 1   
    67   64   65 1   
    68   64   70 1   
    69   64   71 1   
    70   65   66 1   
    71   65   67 2   
    72   66   72 1   
    73   66   73 1   
    74   74   75 1   
    75   74   78 1   
    76   75   76 1   
    77   75   79 1   
    78   75   80 1   
    79   76   77 2   
    80   76   81 1   
    81   81   82 1   
    82   81   93 1   
    83   82   83 1   
    84   82   85 1   
    85   82   94 1   
    86   83   84 2   
    87   83  102 1   
    88   85   86 1   
    89   85   95 1   
    90   85   96 1   
    91   86   87 ar  
    92   86   88 ar  
    93   87   89 ar  
    94   87   97 1   
    95   88   90 ar  
    96   88   98 1   
    97   89   91 ar  
    98   89   99 1   
    99   90   91 ar  
   100   90  100 1   
   101   91   92 1   
   102   92  101 1   
   103  102  103 1   
   104  102  110 1   
   105  103  104 1   
   106  103  106 1   
   107  103  111 1   
   108  104  105 2   
   109  104  121 1   
   110  106  107 1   
   111  106  108 1   
   112  106  112 1   
   113  107  109 1   
   114  107  113 1   
   115  107  114 1   
   116  108  115 1   
   117  108  116 1   
   118  108  117 1   
   119  109  118 1   
   120  109  119 1   
   121  109  120 1   
   122  121  122 1   
   123  121  127 1   
   124  122  123 1   
   125  122  125 1   
   126  122  128 1   
   127  123  124 2   
   128  123  132 1   
   129  125  126 1   
   130  125  129 1   
   131  125  130 1   
   132  126  131 1   
   133  132  133 1   
   134  132  137 1   
   135  133  134 1   
   136  133  136 1   
   137  133  138 1   
   138  134  135 2   
   139  134  142 1   
   140  136  139 1   
   141  136  140 1   
   142  136  141 1   
   143  142  143 1   
   144  142  147 1   
   145  143  144 1   
   146  143  146 1   
   147  143  148 1   
   148  144  145 2   
   149  144  152 1   
   150  146  149 1   
   151  146  150 1   
   152  146  151 1   
   153  152  153 1   
   154  152  161 1   
   155  153  154 1   
   156  153  156 1   
   157  153  162 1   
   158  154  155 2   
   159  154  167 1   
   160  156  157 1   
   161  156  163 1   
   162  156  164 1   
   163  157  158 1   
   164  157  165 1   
   165  157  166 1   
   166  158  159 1   
   167  158  160 1   
   168  167  168 1   
   169  167  172 1   
   170  168  169 1   
   171  168  170 1   
   172  168  171 1   
   173  174  175 1   
   174  174  176 1   
   175  177  178 1   
   176  177  179 1   
@<TRIPOS>SUBSTRUCTURE
     1 MOL         1 TEMP              0 ****  ****    0 ROOT
