@<TRIPOS>MOLECULE
MOL
  189   185     1     0     0
SMALL
resp


@<TRIPOS>ATOM
      1 C1         -0.4190    3.9430    5.3680 c3        1 MOL     -0.405831
      2 C2         -0.6170    3.0990    4.0860 c         1 MOL      0.702574
      3 O1          0.1680    3.1900    3.1840 o         1 MOL     -0.558831
      4 H1          0.3950    3.5220    5.9570 hc        1 MOL      0.097589
      5 H2         -0.1750    4.9700    5.0940 hc        1 MOL      0.097589
      6 H3         -1.3360    3.9320    5.9570 hc        1 MOL      0.097589
      7 N1         -1.7680    2.3890    3.9560 n         1 MOL     -0.540145
      8 C3         -2.2280    1.8740    2.5360 c3        1 MOL      0.011073
      9 C4         -2.7330    3.0280    1.6300 c         1 MOL      0.441254
     10 O2         -3.7360    3.6290    1.9640 o         1 MOL     -0.541131
     11 C5         -3.3340    0.7710    2.6420 c3        1 MOL     -0.278415
     12 C6         -3.8200    0.3240    1.2510 c         1 MOL      0.916691
     13 O3         -4.7560   -0.4900    1.3890 o         1 MOL     -0.716663
     14 O4         -3.2510    0.5680    0.1550 o         1 MOL     -0.716663
     15 H4         -2.4230    2.4080    4.7230 hn        1 MOL      0.332839
     16 H5         -1.3270    1.4400    2.1090 h1        1 MOL      0.025097
     17 H6         -4.1960    1.2150    3.1300 hc        1 MOL      0.081414
     18 H7         -2.9780   -0.1030    3.1870 hc        1 MOL      0.081414
     19 N2         -2.0880    3.4280    0.4700 n         1 MOL      0.065692
     20 C7         -2.4330    4.7650   -0.1180 c3        1 MOL     -0.020421
     21 C8         -3.6070    4.6720   -1.0540 c         1 MOL      0.512155
     22 O5         -4.3500    5.6780   -1.2270 o         1 MOL     -0.582477
     23 C9         -1.1720    5.3260   -0.7450 c3        1 MOL     -0.172092
     24 C10         0.0220    5.5090    0.2370 c3        1 MOL      0.077867
     25 C11        -0.4030    6.2210    1.4810 c3        1 MOL     -0.161802
     26 C12         0.7350    6.7940    2.3570 c3        1 MOL      0.100949
     27 N3          0.0810    7.7090    3.3380 n4        1 MOL     -0.399344
     28 H8         -1.3760    2.8020    0.1420 hn        1 MOL      0.073360
     29 H9         -2.7750    5.4410    0.6710 h1        1 MOL      0.017204
     30 H10        -1.3700    6.3450   -1.0870 hc        1 MOL      0.064454
     31 H11        -0.8530    4.7610   -1.6210 hc        1 MOL      0.064454
     32 H12         0.8340    6.0440   -0.2520 hc        1 MOL      0.016405
     33 H13         0.4020    4.5310    0.5330 hc        1 MOL      0.016405
     34 H14        -1.0670    5.5430    2.0180 hc        1 MOL      0.059820
     35 H15        -0.9020    7.1330    1.1270 hc        1 MOL      0.059820
     36 H16         1.4180    7.2950    1.6780 hx        1 MOL      0.073252
     37 H17         1.2430    5.9980    2.8980 hx        1 MOL      0.073252
     38 H18        -0.2850    8.5700    2.9320 hn        1 MOL      0.329953
     39 H19        -0.6810    7.2380    3.8010 hn        1 MOL      0.329953
     40 H20         0.7220    7.8980    4.0940 hn        1 MOL      0.329953
     41 N4         -3.9160    3.5160   -1.6340 n         1 MOL     -0.348492
     42 C13        -4.7790    3.3360   -2.8340 c3        1 MOL     -0.060745
     43 C14        -6.0090    2.3920   -2.5210 c         1 MOL      0.365606
     44 O6         -6.9710    2.2870   -3.3130 o         1 MOL     -0.518020
     45 C15        -3.9920    2.7630   -4.0630 c3        1 MOL      0.042899
     46 C16        -2.8740    1.7550   -3.7960 c         1 MOL      0.715798
     47 O7         -2.5880    1.3550   -2.6410 o         1 MOL     -0.746911
     48 O8         -2.1560    1.4340   -4.7940 o         1 MOL     -0.746911
     49 H21        -3.2920    2.7350   -1.4960 hn        1 MOL      0.218541
     50 H22        -5.0910    4.3090   -3.2140 h1        1 MOL      0.099234
     51 H23        -3.5020    3.5620   -4.5980 hc        1 MOL      0.000317
     52 H24        -4.7370    2.3570   -4.7560 hc        1 MOL      0.000317
     53 N5         -5.9390    1.7600   -1.3950 n         1 MOL      0.089554
     54 C17        -7.0540    1.0090   -0.9080 c3        1 MOL     -0.381688
     55 C18        -7.0250   -0.3380   -1.5200 c         1 MOL      0.745261
     56 O9         -7.8930   -0.5060   -2.3940 o         1 MOL     -0.556168
     57 H25        -5.0530    1.6970   -0.9150 hn        1 MOL      0.021646
     58 H26        -7.9830    1.5160   -1.1730 h1        1 MOL      0.115890
     59 H27        -7.0320    1.0170    0.1840 h1        1 MOL      0.115890
     60 N6         -6.1490   -1.2430   -1.0620 n         1 MOL     -0.565341
     61 C19        -6.2180   -2.7120   -1.4040 c3        1 MOL     -0.024596
     62 C20        -6.1940   -3.6380   -0.1810 c         1 MOL      0.549162
     63 O10        -6.2430   -4.8590   -0.3710 o         1 MOL     -0.559259
     64 C21        -5.1550   -3.0130   -2.4670 c3        1 MOL      0.020288
     65 C22        -3.7690   -2.4330   -2.2110 c         1 MOL      0.531802
     66 O11        -3.2250   -1.7440   -3.0980 o         1 MOL     -0.647589
     67 O12        -3.2690   -2.6710   -1.1110 o         1 MOL     -0.647589
     68 H28        -5.3810   -0.9240   -0.4820 hn        1 MOL      0.286890
     69 H29        -7.1850   -2.9240   -1.8600 h1        1 MOL      0.085867
     70 H30        -5.5610   -2.6040   -3.3960 hc        1 MOL      0.018789
     71 H31        -5.0880   -4.0880   -2.6290 hc        1 MOL      0.018789
     72 N7         -6.2740   -3.0560    0.9660 n         1 MOL     -0.391990
     73 C23        -6.2450   -3.6930    2.2620 c3        1 MOL     -0.084039
     74 C24        -4.8560   -4.0790    2.6790 c         1 MOL      0.436351
     75 O13        -4.7140   -4.8920    3.5940 o         1 MOL     -0.545651
     76 H32        -6.0630   -2.0730    0.9580 hn        1 MOL      0.284083
     77 H33        -6.8740   -4.5870    2.2220 h1        1 MOL      0.109112
     78 H34        -6.6740   -3.0310    3.0050 h1        1 MOL      0.109112
     79 N8         -3.7880   -3.6060    1.9860 n         1 MOL     -0.088422
     80 C25        -2.4120   -4.0790    2.2070 c3        1 MOL     -0.212867
     81 C26        -1.3790   -2.9740    1.8630 c         1 MOL      0.598413
     82 O14        -1.7040   -1.9280    1.3190 o         1 MOL     -0.651289
     83 C27        -2.1250   -5.3490    1.4320 c3        1 MOL      0.471172
     84 C28        -2.9710   -6.6120    1.7390 c3        1 MOL     -0.332873
     85 O15        -2.2980   -5.0680    0.0420 oh        1 MOL     -0.633822
     86 H35        -3.8800   -2.8850    1.2850 hn        1 MOL      0.146279
     87 H36        -2.1900   -4.2500    3.2680 h1        1 MOL      0.074930
     88 H37        -1.0770   -5.5870    1.5890 h1        1 MOL     -0.014299
     89 H38        -2.8440   -4.2840   -0.0470 ho        1 MOL      0.360365
     90 H39        -2.4320   -7.4560    1.3170 hc        1 MOL      0.086171
     91 H40        -2.9110   -6.7130    2.8300 hc        1 MOL      0.086171
     92 H41        -4.0030   -6.5300    1.3990 hc        1 MOL      0.086171
     93 N9         -0.1780   -3.1410    2.3590 n         1 MOL     -0.364711
     94 C29         1.0300   -2.2050    2.3470 c3        1 MOL     -0.016245
     95 C30         2.1760   -2.9000    1.6130 c         1 MOL      0.375022
     96 O16         2.4450   -4.1220    1.8380 o         1 MOL     -0.539752
     97 C31         1.3780   -1.7570    3.8010 c3        1 MOL      0.023553
     98 C32         0.1180   -0.9850    4.3510 c3        1 MOL     -0.155511
     99 C33         2.5900   -0.8730    3.8920 c3        1 MOL     -0.006113
    100 C34         0.2720   -0.4460    5.7710 c3        1 MOL     -0.289676
    101 H42        -0.0130   -3.9460    2.9430 hn        1 MOL      0.240169
    102 H43         0.8610   -1.3200    1.7340 h1        1 MOL      0.059365
    103 H44         1.6120   -2.6590    4.3840 hc        1 MOL      0.058234
    104 H45        -0.7780   -1.6140    4.3840 hc        1 MOL      0.110288
    105 H46        -0.1310   -0.1720    3.6680 hc        1 MOL      0.110288
    106 H47         2.3550    0.1050    3.4880 hc        1 MOL      0.004899
    107 H48         2.9630   -0.9350    4.9170 hc        1 MOL      0.004899
    108 H49         3.4040   -1.3280    3.3140 hc        1 MOL      0.004899
    109 H50         1.0860    0.2650    5.9320 hc        1 MOL      0.081057
    110 H51        -0.6190    0.0800    6.1120 hc        1 MOL      0.081057
    111 H52         0.5380   -1.2680    6.4390 hc        1 MOL      0.081057
    112 N10         2.8310   -2.2830    0.6280 n         1 MOL     -0.084197
    113 C35         3.9600   -2.7650   -0.2250 c3        1 MOL     -0.016555
    114 C36         5.2980   -2.1600    0.1190 c         1 MOL      0.270319
    115 O17         5.3420   -1.1510    0.8320 o         1 MOL     -0.333062
    116 C37         3.5740   -2.7240   -1.7070 c3        1 MOL      0.304434
    117 C38         2.6280   -3.8270   -2.1320 c3        1 MOL     -0.460235
    118 O18         2.9990   -1.5150   -2.0780 oh        1 MOL     -0.437832
    119 H53         2.4800   -1.3840    0.3440 hn        1 MOL      0.331304
    120 H54         4.1310   -3.8220   -0.0110 h1        1 MOL      0.070990
    121 H55         4.5180   -2.7420   -2.2500 h1        1 MOL      0.011745
    122 H56         2.1990   -1.3380   -1.5790 ho        1 MOL      0.107380
    123 H57         2.0150   -4.2570   -1.3480 hc        1 MOL      0.120220
    124 H58         1.9450   -3.4070   -2.8710 hc        1 MOL      0.120220
    125 H59         3.1440   -4.5680   -2.7450 hc        1 MOL      0.120220
    126 N11         6.4380   -2.6600   -0.3610 n         1 MOL     -0.265048
    127 C39         7.8110   -1.9790   -0.2270 c3        1 MOL     -0.159465
    128 C40         7.8870   -0.5510   -0.7570 c         1 MOL      0.432651
    129 O19         8.7850    0.1990   -0.3180 o         1 MOL     -0.507640
    130 C41         8.8880   -2.8180   -0.9090 c3        1 MOL      0.226366
    131 C42         9.2060   -4.0330    0.0220 c3        1 MOL     -0.366580
    132 O20         8.4190   -3.2660   -2.2110 oh        1 MOL     -0.632279
    133 H60         6.4760   -3.4870   -0.9420 hn        1 MOL      0.276380
    134 H61         8.0300   -1.9100    0.8360 h1        1 MOL      0.172812
    135 H62         9.7640   -2.1590   -0.9670 h1        1 MOL      0.081526
    136 H63         9.1570   -3.7590   -2.5990 ho        1 MOL      0.426552
    137 H64        10.1600   -4.4360   -0.2950 hc        1 MOL      0.111020
    138 H65         9.3080   -3.7090    1.0600 hc        1 MOL      0.111020
    139 H66         8.4610   -4.8220   -0.0660 hc        1 MOL      0.111020
    140 N12         7.0060   -0.0380   -1.6440 n         1 MOL     -0.232588
    141 C43         6.8570    1.3940   -2.0200 c3        1 MOL     -0.051727
    142 C44         6.0220    2.1790   -0.9730 c         1 MOL      0.454417
    143 O21         5.9740    3.3920   -1.1300 o         1 MOL     -0.526827
    144 C45         6.2530    1.4630   -3.4550 c3        1 MOL     -0.228319
    145 C46         4.7790    1.1640   -3.4310 c3        1 MOL      0.030957
    146 C47         4.2100    1.0640   -4.8880 c3        1 MOL     -0.318725
    147 C48         2.7310    0.5950   -4.9150 c3        1 MOL      0.303318
    148 N13         2.1940    0.3750   -6.2570 n4        1 MOL     -0.420498
    149 H67         6.4800   -0.6540   -2.2480 hn        1 MOL      0.216874
    150 H68         7.8620    1.8090   -2.0450 h1        1 MOL      0.129317
    151 H69         6.7680    0.7120   -4.0370 hc        1 MOL      0.104995
    152 H70         6.3750    2.5070   -3.7390 hc        1 MOL      0.104995
    153 H71         4.2740    2.0290   -2.9980 hc        1 MOL      0.081568
    154 H72         4.4790    0.2260   -2.9550 hc        1 MOL      0.081568
    155 H73         4.8240    0.3790   -5.4790 hc        1 MOL      0.081999
    156 H74         4.2650    2.0390   -5.3710 hc        1 MOL      0.081999
    157 H75         2.1040    1.3220   -4.3930 hx        1 MOL      0.030898
    158 H76         2.7450   -0.4050   -4.4850 hx        1 MOL      0.030898
    159 H77         2.3160    1.1570   -6.8980 hn        1 MOL      0.330371
    160 H78         2.5860   -0.4040   -6.7690 hn        1 MOL      0.330371
    161 H79         1.1980    0.2120   -6.2540 hn        1 MOL      0.330371
    162 N14         5.2640    1.5580   -0.0510 n         1 MOL     -0.153865
    163 C49         4.3940    2.3220    0.9120 c3        1 MOL     -0.056800
    164 C50         4.8740    2.2570    2.3540 c         1 MOL      0.423091
    165 O22         4.6420    3.1370    3.2360 o         1 MOL     -0.550518
    166 C51         2.9690    1.6870    0.8260 c3        1 MOL     -0.028122
    167 C52         2.2590    1.8980   -0.4820 c3        1 MOL      0.074159
    168 C53         1.0370    1.0330   -0.5700 c         1 MOL      0.680489
    169 O23         1.1940   -0.1690   -0.6340 o         1 MOL     -0.701756
    170 O24        -0.1310    1.4840   -0.6670 o         1 MOL     -0.701756
    171 H80         5.2740    0.5450    0.0240 hn        1 MOL      0.012986
    172 H81         4.3630    3.3780    0.6440 h1        1 MOL      0.083772
    173 H82         2.2480    2.1550    1.5010 hc        1 MOL      0.042831
    174 H83         3.1200    0.6380    1.0770 hc        1 MOL      0.042831
    175 H84         2.9420    1.6810   -1.3010 hc        1 MOL     -0.030694
    176 H85         1.8980    2.9230   -0.6060 hc        1 MOL     -0.030694
    177 N15         5.5640    1.1750    2.6490 n         1 MOL     -0.167375
    178 C54         5.9490    0.8170    3.9620 c3        1 MOL     -0.140279
    179 H86         5.6980    1.6270    4.6470 h1        1 MOL      0.075009
    180 H87         5.4200   -0.0880    4.2620 h1        1 MOL      0.075009
    181 H88         7.0240    0.6370    3.9900 h1        1 MOL      0.075009
    182 H89         5.6790    0.5160    1.9090 hn        1 MOL      0.165344
    183 Ca1        -1.5140   -0.6000   -1.3080 Ca        1 MOL      1.759475
    184 O25        -0.3680   -3.0770   -1.0980 oh        1 MOL     -0.865555
    185 H90         0.0970   -3.3970   -1.8610 ho        1 MOL      0.410525
    186 H91        -1.1280   -3.6600   -1.0230 ho        1 MOL      0.410525
    187 O26         0.2970   -1.0590   -3.4080 oh        1 MOL     -0.865555
    188 H92         0.3470   -1.6720   -4.1480 ho        1 MOL      0.410525
    189 H93         1.1980   -0.7940   -3.2550 ho        1 MOL      0.410525
@<TRIPOS>BOND
     1    1    2 1   
     2    1    4 1   
     3    1    5 1   
     4    1    6 1   
     5    2    3 2   
     6    2    7 1   
     7    7    8 1   
     8    7   15 1   
     9    8    9 1   
    10    8   11 1   
    11    8   16 1   
    12    9   10 2   
    13    9   19 1   
    14   11   12 1   
    15   11   17 1   
    16   11   18 1   
    17   12   13 1   
    18   12   14 1   
    19   19   20 1   
    20   19   28 1   
    21   20   21 1   
    22   20   23 1   
    23   20   29 1   
    24   21   22 2   
    25   21   41 1   
    26   23   24 1   
    27   23   30 1   
    28   23   31 1   
    29   24   25 1   
    30   24   32 1   
    31   24   33 1   
    32   25   26 1   
    33   25   34 1   
    34   25   35 1   
    35   26   27 1   
    36   26   36 1   
    37   26   37 1   
    38   27   38 1   
    39   27   39 1   
    40   27   40 1   
    41   41   42 1   
    42   41   49 1   
    43   42   43 1   
    44   42   45 1   
    45   42   50 1   
    46   43   44 2   
    47   43   53 1   
    48   45   46 1   
    49   45   51 1   
    50   45   52 1   
    51   46   47 1   
    52   46   48 1   
    53   53   54 1   
    54   53   57 1   
    55   54   55 1   
    56   54   58 1   
    57   54   59 1   
    58   55   56 2   
    59   55   60 1   
    60   60   61 1   
    61   60   68 1   
    62   61   62 1   
    63   61   64 1   
    64   61   69 1   
    65   62   63 2   
    66   62   72 1   
    67   64   65 1   
    68   64   70 1   
    69   64   71 1   
    70   65   66 1   
    71   65   67 1   
    72   72   73 1   
    73   72   76 1   
    74   73   74 1   
    75   73   77 1   
    76   73   78 1   
    77   74   75 2   
    78   74   79 1   
    79   79   80 1   
    80   79   86 1   
    81   80   81 1   
    82   80   83 1   
    83   80   87 1   
    84   81   82 2   
    85   81   93 1   
    86   83   84 1   
    87   83   85 1   
    88   83   88 1   
    89   84   90 1   
    90   84   91 1   
    91   84   92 1   
    92   85   89 1   
    93   93   94 1   
    94   93  101 1   
    95   94   95 1   
    96   94   97 1   
    97   94  102 1   
    98   95   96 2   
    99   95  112 1   
   100   97   98 1   
   101   97   99 1   
   102   97  103 1   
   103   98  100 1   
   104   98  104 1   
   105   98  105 1   
   106   99  106 1   
   107   99  107 1   
   108   99  108 1   
   109  100  109 1   
   110  100  110 1   
   111  100  111 1   
   112  112  113 1   
   113  112  119 1   
   114  113  114 1   
   115  113  116 1   
   116  113  120 1   
   117  114  115 2   
   118  114  126 1   
   119  116  117 1   
   120  116  118 1   
   121  116  121 1   
   122  117  123 1   
   123  117  124 1   
   124  117  125 1   
   125  118  122 1   
   126  126  127 1   
   127  126  133 1   
   128  127  128 1   
   129  127  130 1   
   130  127  134 1   
   131  128  129 2   
   132  128  140 1   
   133  130  131 1   
   134  130  132 1   
   135  130  135 1   
   136  131  137 1   
   137  131  138 1   
   138  131  139 1   
   139  132  136 1   
   140  140  141 1   
   141  140  149 1   
   142  141  142 1   
   143  141  144 1   
   144  141  150 1   
   145  142  143 2   
   146  142  162 1   
   147  144  145 1   
   148  144  151 1   
   149  144  152 1   
   150  145  146 1   
   151  145  153 1   
   152  145  154 1   
   153  146  147 1   
   154  146  155 1   
   155  146  156 1   
   156  147  148 1   
   157  147  157 1   
   158  147  158 1   
   159  148  159 1   
   160  148  160 1   
   161  148  161 1   
   162  162  163 1   
   163  162  171 1   
   164  163  164 1   
   165  163  166 1   
   166  163  172 1   
   167  164  165 2   
   168  164  177 1   
   169  166  167 1   
   170  166  173 1   
   171  166  174 1   
   172  167  168 1   
   173  167  175 1   
   174  167  176 1   
   175  168  169 1   
   176  168  170 1   
   177  177  178 1   
   178  177  182 1   
   179  178  179 1   
   180  178  180 1   
   181  178  181 1   
   182  184  185 1   
   183  184  186 1   
   184  187  188 1   
   185  187  189 1   
@<TRIPOS>SUBSTRUCTURE
     1 MOL         1 TEMP              0 ****  ****    0 ROOT
