@<TRIPOS>MOLECULE
MOL
  172   171     1     0     0
SMALL
resp


@<TRIPOS>ATOM
      1 C1          0.1180   -2.7380    5.9990 c3        1 MOL     -0.435557
      2 C2          0.5180   -2.6610    4.5610 c         1 MOL      0.759365
      3 O1         -0.2860   -3.0430    3.6980 o         1 MOL     -0.587841
      4 H1         -0.0190   -3.7810    6.2830 hc        1 MOL      0.107033
      5 H2          0.8960   -2.2920    6.6180 hc        1 MOL      0.107033
      6 H3         -0.8180   -2.1970    6.1450 hc        1 MOL      0.107033
      7 N1          1.7100   -2.1550    4.1810 n         1 MOL     -0.623471
      8 C3          2.1860   -2.0730    2.8230 c3        1 MOL      0.334577
      9 C4          2.5500   -3.4590    2.1960 c         1 MOL      0.374786
     10 O2          3.3800   -4.1910    2.8270 o         1 MOL     -0.589608
     11 C5          3.3930   -1.1350    2.8320 c3        1 MOL     -0.386402
     12 C6          3.9480   -0.9580    1.3840 c         1 MOL      0.800116
     13 O3          3.2170   -1.2350    0.3710 o         1 MOL     -0.710478
     14 O4          5.1220   -0.4750    1.2780 o         1 MOL     -0.710478
     15 H4          2.2090   -1.6580    4.8960 hn        1 MOL      0.301786
     16 H5          1.4250   -1.5700    2.2300 h1        1 MOL     -0.000565
     17 H6          4.1710   -1.4970    3.4850 hc        1 MOL      0.092360
     18 H7          3.0820   -0.1820    3.2630 hc        1 MOL      0.092360
     19 N2          1.8690   -3.8500    1.1240 n         1 MOL     -0.135506
     20 C7          2.0590   -5.0680    0.3930 c3        1 MOL      0.058653
     21 C8          3.0480   -5.0410   -0.7540 c         1 MOL      0.313116
     22 O5          3.4840   -6.0940   -1.3150 o         1 MOL     -0.530460
     23 C9          0.6910   -5.3550   -0.1390 c3        1 MOL     -0.404339
     24 H8          1.3220   -3.1470    0.6350 hn        1 MOL      0.186394
     25 H9          2.2740   -5.8710    1.0980 h1        1 MOL      0.075247
     26 H10         0.4510   -4.6290   -0.9020 hc        1 MOL      0.121996
     27 H11         0.7190   -6.3100   -0.6720 hc        1 MOL      0.121996
     28 H12        -0.0380   -5.2480    0.6710 hc        1 MOL      0.121996
     29 N3          3.5540   -3.8350   -1.0690 n         1 MOL     -0.065139
     30 C10         4.5510   -3.5630   -2.1020 c3        1 MOL     -0.085649
     31 C11         5.9990   -3.3040   -1.6130 c         1 MOL      0.432294
     32 O6          6.9500   -3.3360   -2.4320 o         1 MOL     -0.520814
     33 C12         4.1640   -2.3670   -2.9390 c3        1 MOL      0.017401
     34 C13         2.7320   -2.3020   -3.4460 c         1 MOL      0.660454
     35 O7          2.0690   -1.3170   -3.1470 o         1 MOL     -0.691989
     36 O8          2.2700   -3.1460   -4.2420 o         1 MOL     -0.691989
     37 H13         3.1290   -3.0620   -0.5840 hn        1 MOL      0.141520
     38 H14         4.6310   -4.4090   -2.7920 h1        1 MOL      0.088809
     39 H15         4.8170   -2.3560   -3.8070 hc        1 MOL     -0.026258
     40 H16         4.3990   -1.4780   -2.3520 hc        1 MOL     -0.026258
     41 N4          6.1060   -2.9710   -0.3500 n         1 MOL     -0.283786
     42 C14         7.3720   -2.5290    0.1770 c3        1 MOL      0.001609
     43 C15         7.9460   -1.2410   -0.5090 c         1 MOL      0.407336
     44 O9          9.1480   -1.1650   -0.7460 o         1 MOL     -0.549085
     45 H17         5.2570   -2.8520    0.1840 hn        1 MOL      0.167576
     46 H18         8.1520   -3.2920    0.0670 h1        1 MOL      0.042506
     47 H19         7.2650   -2.2250    1.2160 h1        1 MOL      0.042506
     48 N5          6.9980   -0.3550   -0.7480 n         1 MOL     -0.282734
     49 C16         7.2200    0.9480   -1.3950 c3        1 MOL      0.000294
     50 C17         7.2190    2.1080   -0.4080 c         1 MOL      0.400055
     51 O10         7.7800    3.1180   -0.7630 o         1 MOL     -0.546760
     52 C18         6.1160    1.1380   -2.4700 c3        1 MOL     -0.227611
     53 C19         4.8410    1.7060   -1.9920 c         1 MOL      0.484184
     54 N6          4.6050    2.9680   -2.3740 n         1 MOL     -0.616271
     55 O11         4.1370    1.2250   -1.1240 o         1 MOL     -0.587109
     56 H20         6.0770   -0.5510   -0.3900 hn        1 MOL      0.455121
     57 H21         8.1560    1.0150   -1.9580 h1        1 MOL      0.114540
     58 H22         5.9210    0.1710   -2.9530 hc        1 MOL      0.092356
     59 H23         6.4300    1.8160   -3.2610 hc        1 MOL      0.092356
     60 H24         5.1140    3.3170   -3.1770 hn        1 MOL      0.326432
     61 H25         3.7570    3.4010   -2.0270 hn        1 MOL      0.326432
     62 N7          6.6760    1.9970    0.8070 n         1 MOL     -0.183313
     63 C20         6.6150    3.1190    1.7920 c3        1 MOL     -0.059687
     64 C21         5.2830    3.8950    1.7060 c         1 MOL      0.517898
     65 O12         5.1360    4.7470    2.5670 o         1 MOL     -0.566834
     66 H26         6.3890    1.0820    1.1260 hn        1 MOL      0.163443
     67 H27         7.3680    3.8430    1.4760 h1        1 MOL      0.080183
     68 H28         6.8520    2.8280    2.8150 h1        1 MOL      0.080183
     69 N8          4.3120    3.5790    0.8060 n         1 MOL     -0.114426
     70 C22         2.9510    4.2600    0.8040 c3        1 MOL     -0.106776
     71 C23         1.7010    3.2800    0.7710 c         1 MOL      0.636835
     72 O13         1.8760    2.1050    0.6680 o         1 MOL     -0.625970
     73 C24         2.7690    5.3670   -0.2750 c3        1 MOL      0.063099
     74 C25         4.1400    6.0820   -0.5150 c3        1 MOL     -0.318805
     75 O14         2.5510    4.8530   -1.5350 oh        1 MOL     -0.577023
     76 H29         4.4200    2.8900    0.0740 hn        1 MOL      0.102851
     77 H30         2.8390    4.7270    1.7760 h1        1 MOL      0.089100
     78 H31         1.9520    6.0770   -0.1300 h1        1 MOL      0.094624
     79 H32         2.8490    5.5580   -2.1110 ho        1 MOL      0.427404
     80 H33         4.8830    5.3550   -0.8620 hc        1 MOL      0.092249
     81 H34         4.0480    6.8060   -1.3190 hc        1 MOL      0.092249
     82 H35         4.5580    6.5780    0.3630 hc        1 MOL      0.092249
     83 N9          0.4740    3.8820    0.8900 n         1 MOL     -0.392885
     84 C26        -0.7750    3.1510    1.0630 c3        1 MOL      0.124532
     85 C27        -1.7170    3.2220   -0.1480 c         1 MOL      0.386995
     86 O15        -2.0210    4.2940   -0.5750 o         1 MOL     -0.569065
     87 C28        -1.4420    3.6200    2.4140 c3        1 MOL     -0.023071
     88 C29        -0.5580    3.1300    3.5660 c3        1 MOL      0.155163
     89 C30        -2.9010    3.1900    2.6210 c3        1 MOL     -0.209234
     90 C31        -1.1360    3.3980    4.9740 c3        1 MOL     -0.470623
     91 H36         0.3950    4.8820    0.9160 hn        1 MOL      0.237101
     92 H37        -0.5300    2.0850    1.0730 h1        1 MOL      0.108304
     93 H38        -1.3560    4.7060    2.3790 hc        1 MOL      0.023398
     94 H39         0.3930    3.6410    3.4420 hc        1 MOL     -0.008866
     95 H40        -0.3020    2.0810    3.4040 hc        1 MOL     -0.008866
     96 H41        -3.5000    3.3870    1.7380 hc        1 MOL      0.052795
     97 H42        -3.1200    2.1670    2.9290 hc        1 MOL      0.052795
     98 H43        -3.4150    3.7110    3.4370 hc        1 MOL      0.052795
     99 H44        -0.5390    2.9950    5.7930 hc        1 MOL      0.115474
    100 H45        -1.3480    4.4670    5.0500 hc        1 MOL      0.115474
    101 H46        -2.0560    2.8620    5.2040 hc        1 MOL      0.115474
    102 N10        -2.1260    2.0960   -0.6540 n         1 MOL     -0.087362
    103 C32        -3.1270    1.9170   -1.6790 c3        1 MOL      0.184236
    104 C33        -4.4770    1.5000   -1.0930 c         1 MOL      0.326042
    105 O16        -4.3930    0.8940   -0.0140 o         1 MOL     -0.116487
    106 C34        -2.6760    0.9050   -2.7060 c3        1 MOL     -0.458499
    107 C35        -1.3040    1.2170   -3.1950 c         1 MOL      0.849374
    108 O17        -0.3270    0.5530   -2.7950 o         1 MOL     -0.727804
    109 O18        -1.1160    2.1160   -4.0350 o         1 MOL     -0.727804
    110 H47        -1.7660    1.2470   -0.2420 hn        1 MOL     -0.028624
    111 H48        -3.2030    2.8670   -2.2090 h1        1 MOL      0.025748
    112 H49        -3.4240    0.7170   -3.4630 hc        1 MOL      0.125877
    113 H50        -2.5880   -0.0580   -2.2180 hc        1 MOL      0.125877
    114 N11        -5.6130    1.7140   -1.7100 n         1 MOL     -0.685506
    115 C36        -6.9470    1.1780   -1.2600 c3        1 MOL      0.457627
    116 C37        -6.9410   -0.2460   -0.6460 c         1 MOL      0.352872
    117 O19        -7.5630   -0.3420    0.4280 o         1 MOL     -0.473326
    118 C38        -8.0490    1.3990   -2.3760 c3        1 MOL     -0.410859
    119 C39        -9.4140    0.9220   -1.8700 ca        1 MOL      0.130520
    120 C40        -9.9160    1.2430   -0.5940 ca        1 MOL     -0.121061
    121 C41       -10.2520    0.2090   -2.7540 ca        1 MOL     -0.121061
    122 C42       -11.2370    1.0400   -0.2720 ca        1 MOL     -0.147340
    123 C43       -11.6080   -0.1080   -2.3680 ca        1 MOL     -0.147340
    124 C44       -12.0520    0.3230   -1.1290 ca        1 MOL     -0.100747
    125 H51        -5.6270    2.2980   -2.5470 hn        1 MOL      0.360930
    126 H52        -7.2060    1.8090   -0.4170 h1        1 MOL      0.050927
    127 H53        -7.7590    0.9240   -3.3120 hc        1 MOL      0.119776
    128 H54        -8.2360    2.4700   -2.4850 hc        1 MOL      0.119776
    129 H55        -9.3220    1.8010    0.1200 ha        1 MOL      0.095974
    130 H56        -9.8840   -0.0790   -3.7280 ha        1 MOL      0.095974
    131 H57       -11.6040    1.4490    0.6640 ha        1 MOL      0.116642
    132 H58       -12.3680   -0.6180   -2.9370 ha        1 MOL      0.116642
    133 H59       -13.0180   -0.1010   -0.8900 ha        1 MOL      0.098158
    134 N12        -6.2610   -1.3200   -1.1310 n         1 MOL     -0.239966
    135 C45        -6.3390   -2.6840   -0.4740 c3        1 MOL     -0.032899
    136 C46        -5.5300   -2.6960    0.8070 c         1 MOL      0.372024
    137 O20        -5.7540   -3.5660    1.6430 o         1 MOL     -0.521717
    138 C47        -5.6370   -3.6270   -1.4340 c3        1 MOL     -0.046206
    139 C48        -4.9270   -2.6690   -2.4770 c3        1 MOL     -0.128930
    140 C49        -5.7820   -1.4120   -2.4910 c3        1 MOL      0.199834
    141 H60        -7.3180   -3.0740   -0.2230 h1        1 MOL      0.105399
    142 H61        -4.8760   -4.2220   -0.9130 hc        1 MOL      0.047556
    143 H62        -6.2600   -4.3690   -1.9240 hc        1 MOL      0.047556
    144 H63        -3.9710   -2.3470   -2.0600 hc        1 MOL      0.055459
    145 H64        -4.8400   -2.9690   -3.5140 hc        1 MOL      0.055459
    146 H65        -5.1160   -0.5760   -2.7120 h1        1 MOL     -0.013986
    147 H66        -6.5600   -1.4090   -3.2410 h1        1 MOL     -0.013986
    148 N13        -4.6190   -1.7330    1.0180 n         1 MOL     -0.073463
    149 C50        -3.8800   -1.6280    2.2090 c3        1 MOL     -0.245283
    150 C51        -4.6200   -0.7190    3.1740 c         1 MOL      0.558241
    151 O21        -4.4770   -0.8550    4.3840 o         1 MOL     -0.566504
    152 C52        -2.4810   -1.1160    1.8210 c3        1 MOL      0.139101
    153 C53        -1.8720   -1.9600    0.6330 c3        1 MOL     -0.005427
    154 C54        -0.5380   -1.4440    0.2230 c         1 MOL      0.597115
    155 O22        -0.2840   -0.2280    0.3680 o         1 MOL     -0.706991
    156 O23         0.2180   -2.2190   -0.3990 o         1 MOL     -0.706991
    157 H67        -4.6840   -0.8770    0.4950 hn        1 MOL      0.014993
    158 H68        -3.7590   -2.6090    2.6620 h1        1 MOL      0.130344
    159 H69        -1.8180   -1.2460    2.6860 hc        1 MOL      0.004401
    160 H70        -2.5820   -0.0540    1.5980 hc        1 MOL      0.004401
    161 H71        -2.4850   -1.7390   -0.2380 hc        1 MOL      0.033465
    162 H72        -1.8060   -3.0250    0.8300 hc        1 MOL      0.033465
    163 N14        -5.3810    0.2650    2.6380 n         1 MOL     -0.072330
    164 C55        -6.2060    1.0690    3.5330 c3        1 MOL     -0.183260
    165 H73        -6.3880    2.0440    3.0800 h1        1 MOL      0.069257
    166 H74        -7.1570    0.5650    3.7030 h1        1 MOL      0.069257
    167 H75        -5.6890    1.2010    4.4840 h1        1 MOL      0.069257
    168 H76        -5.1300    0.5560    1.7090 hn        1 MOL     -0.012419
    169 Ca1         1.7360    0.1650   -1.1490 Ca        1 MOL      1.749371
    170 O24         1.3180    2.5370   -2.4590 oh        1 MOL     -0.882600
    171 H77         0.5620    2.4350   -3.0420 ho        1 MOL      0.403579
    172 H78         1.2760    3.4400   -2.1670 ho        1 MOL      0.403579
@<TRIPOS>BOND
     1    1    2 1   
     2    1    4 1   
     3    1    5 1   
     4    1    6 1   
     5    2    3 2   
     6    2    7 1   
     7    7    8 1   
     8    7   15 1   
     9    8    9 1   
    10    8   11 1   
    11    8   16 1   
    12    9   10 2   
    13    9   19 1   
    14   11   12 1   
    15   11   17 1   
    16   11   18 1   
    17   12   13 1   
    18   12   14 1   
    19   19   20 1   
    20   19   24 1   
    21   20   21 1   
    22   20   23 1   
    23   20   25 1   
    24   21   22 2   
    25   21   29 1   
    26   23   26 1   
    27   23   27 1   
    28   23   28 1   
    29   29   30 1   
    30   29   37 1   
    31   30   31 1   
    32   30   33 1   
    33   30   38 1   
    34   31   32 2   
    35   31   41 1   
    36   33   34 1   
    37   33   39 1   
    38   33   40 1   
    39   34   35 1   
    40   34   36 1   
    41   41   42 1   
    42   41   45 1   
    43   42   43 1   
    44   42   46 1   
    45   42   47 1   
    46   43   44 2   
    47   43   48 1   
    48   48   49 1   
    49   48   56 1   
    50   49   50 1   
    51   49   52 1   
    52   49   57 1   
    53   50   51 2   
    54   50   62 1   
    55   52   53 1   
    56   52   58 1   
    57   52   59 1   
    58   53   54 1   
    59   53   55 2   
    60   54   60 1   
    61   54   61 1   
    62   62   63 1   
    63   62   66 1   
    64   63   64 1   
    65   63   67 1   
    66   63   68 1   
    67   64   65 2   
    68   64   69 1   
    69   69   70 1   
    70   69   76 1   
    71   70   71 1   
    72   70   73 1   
    73   70   77 1   
    74   71   72 2   
    75   71   83 1   
    76   73   74 1   
    77   73   75 1   
    78   73   78 1   
    79   74   80 1   
    80   74   81 1   
    81   74   82 1   
    82   75   79 1   
    83   83   84 1   
    84   83   91 1   
    85   84   85 1   
    86   84   87 1   
    87   84   92 1   
    88   85   86 2   
    89   85  102 1   
    90   87   88 1   
    91   87   89 1   
    92   87   93 1   
    93   88   90 1   
    94   88   94 1   
    95   88   95 1   
    96   89   96 1   
    97   89   97 1   
    98   89   98 1   
    99   90   99 1   
   100   90  100 1   
   101   90  101 1   
   102  102  103 1   
   103  102  110 1   
   104  103  104 1   
   105  103  106 1   
   106  103  111 1   
   107  104  105 2   
   108  104  114 1   
   109  106  107 1   
   110  106  112 1   
   111  106  113 1   
   112  107  108 1   
   113  107  109 1   
   114  114  115 1   
   115  114  125 1   
   116  115  116 1   
   117  115  118 1   
   118  115  126 1   
   119  116  117 2   
   120  116  134 1   
   121  118  119 1   
   122  118  127 1   
   123  118  128 1   
   124  119  120 ar  
   125  119  121 ar  
   126  120  122 ar  
   127  120  129 1   
   128  121  123 ar  
   129  121  130 1   
   130  122  124 ar  
   131  122  131 1   
   132  123  124 ar  
   133  123  132 1   
   134  124  133 1   
   135  134  135 1   
   136  134  140 1   
   137  135  136 1   
   138  135  138 1   
   139  135  141 1   
   140  136  137 2   
   141  136  148 1   
   142  138  139 1   
   143  138  142 1   
   144  138  143 1   
   145  139  140 1   
   146  139  144 1   
   147  139  145 1   
   148  140  146 1   
   149  140  147 1   
   150  148  149 1   
   151  148  157 1   
   152  149  150 1   
   153  149  152 1   
   154  149  158 1   
   155  150  151 2   
   156  150  163 1   
   157  152  153 1   
   158  152  159 1   
   159  152  160 1   
   160  153  154 1   
   161  153  161 1   
   162  153  162 1   
   163  154  155 1   
   164  154  156 1   
   165  163  164 1   
   166  163  168 1   
   167  164  165 1   
   168  164  166 1   
   169  164  167 1   
   170  170  171 1   
   171  170  172 1   
@<TRIPOS>SUBSTRUCTURE
     1 MOL         1 TEMP              0 ****  ****    0 ROOT
