@<TRIPOS>MOLECULE
MOL
  175   173     1     0     0
SMALL
resp


@<TRIPOS>ATOM
      1 C1          0.2500    4.2920    5.3990 c3        1 MOL     -0.544659
      2 C2         -0.2820    4.0330    3.9660 c         1 MOL      0.627224
      3 O1          0.4680    4.0340    2.9470 o         1 MOL     -0.532423
      4 H1         -0.5870    4.3190    6.0970 hc        1 MOL      0.143079
      5 H2          0.9340    3.4920    5.6840 hc        1 MOL      0.143079
      6 H3          0.7750    5.2470    5.4250 hc        1 MOL      0.143079
      7 N1         -1.5690    4.0010    3.7880 n         1 MOL     -0.482758
      8 C3         -2.1700    3.7230    2.5010 c3        1 MOL      0.054861
      9 C4         -2.1440    4.9290    1.5230 c         1 MOL      0.750079
     10 O2         -2.4350    6.0610    1.9870 o         1 MOL     -0.618232
     11 C5         -3.6090    3.3460    2.6060 c3        1 MOL     -0.368209
     12 C6         -4.2210    2.3550    1.6480 c         1 MOL      0.923461
     13 O3         -5.3280    1.8950    1.9900 o         1 MOL     -0.703470
     14 O4         -3.5640    1.9690    0.6370 o         1 MOL     -0.703470
     15 H4         -2.2430    4.0190    4.5410 hn        1 MOL      0.320625
     16 H5         -1.6860    2.8660    2.0220 h1        1 MOL      0.042486
     17 H6         -4.2570    4.2030    2.4500 hc        1 MOL      0.062420
     18 H7         -3.7080    2.9860    3.6320 hc        1 MOL      0.062420
     19 N2         -1.9340    4.6550    0.2650 n         1 MOL     -0.771989
     20 C7         -2.1510    5.5770   -0.8400 c3        1 MOL      0.502577
     21 C8         -3.1310    5.0790   -1.9360 c         1 MOL      0.192971
     22 O5         -3.4550    5.8820   -2.8700 o         1 MOL     -0.527765
     23 C9         -0.7860    5.7810   -1.4020 c3        1 MOL     -0.287376
     24 H8         -1.7740    3.6870    0.0650 hn        1 MOL      0.388483
     25 H9         -2.4910    6.5250   -0.4290 h1        1 MOL     -0.008733
     26 H10        -0.1800    6.1820   -0.5920 hc        1 MOL      0.073172
     27 H11        -0.4190    4.8740   -1.8880 hc        1 MOL      0.073172
     28 H12        -0.8490    6.5620   -2.1620 hc        1 MOL      0.073172
     29 N3         -3.6010    3.7920   -1.9430 n         1 MOL     -0.098463
     30 C10        -4.4800    3.3390   -2.9640 c3        1 MOL      0.065152
     31 C11        -5.7560    2.5700   -2.4940 c         1 MOL      0.290152
     32 O6         -6.6100    2.3180   -3.2940 o         1 MOL     -0.521576
     33 C12        -3.7600    2.4420   -3.9320 c3        1 MOL     -0.086247
     34 C13        -2.9110    1.3340   -3.3450 c         1 MOL      0.701931
     35 O7         -3.1840    0.7940   -2.2290 o         1 MOL     -0.670862
     36 O8         -1.8650    1.2000   -3.9710 o         1 MOL     -0.670862
     37 H13        -3.2220    3.1770   -1.2360 hn        1 MOL      0.147664
     38 H14        -4.8470    4.1690   -3.5660 h1        1 MOL      0.081359
     39 H15        -3.1590    3.1030   -4.5540 hc        1 MOL      0.006405
     40 H16        -4.4260    1.9260   -4.6280 hc        1 MOL      0.006405
     41 N4         -5.8510    2.0780   -1.2710 n         1 MOL     -0.030459
     42 C14        -7.0510    1.3260   -0.8310 c3        1 MOL     -0.280678
     43 C15        -7.4180   -0.0440   -1.3830 c         1 MOL      0.466002
     44 O9         -8.6080   -0.4210   -1.2290 o         1 MOL     -0.578233
     45 H17        -5.1400    2.2820   -0.5800 hn        1 MOL     -0.008758
     46 H18        -7.8960    1.9420   -1.1280 h1        1 MOL      0.132294
     47 H19        -7.1180    1.2820    0.2600 h1        1 MOL      0.132294
     48 N5         -6.4350   -0.7330   -1.8760 n         1 MOL     -0.209554
     49 C16        -6.2790   -2.1420   -2.1640 c3        1 MOL     -0.035867
     50 C17        -6.2010   -3.0220   -0.9460 c         1 MOL      0.483675
     51 O10        -6.4080   -4.2360   -1.0320 o         1 MOL     -0.550338
     52 C18        -5.1470   -2.3080   -3.1600 c3        1 MOL     -0.148722
     53 C19        -3.7710   -2.1280   -2.5370 c         1 MOL      0.655658
     54 N6         -2.7560   -2.1720   -3.3920 n         1 MOL     -0.660449
     55 O11        -3.5900   -1.8020   -1.3590 o         1 MOL     -0.726655
     56 H20        -5.6500   -0.1950   -2.2090 hn        1 MOL      0.233734
     57 H21        -7.1700   -2.4130   -2.7280 h1        1 MOL      0.093567
     58 H22        -5.2600   -1.6280   -3.9990 hc        1 MOL      0.057027
     59 H23        -5.1340   -3.2980   -3.6180 hc        1 MOL      0.057027
     60 H24        -2.9290   -2.3360   -4.3760 hn        1 MOL      0.331456
     61 H25        -1.8550   -1.8630   -3.0700 hn        1 MOL      0.331456
     62 N7         -6.1790   -2.4620    0.3040 n         1 MOL     -0.185500
     63 C20        -6.3090   -3.2940    1.4650 c3        1 MOL     -0.254179
     64 C21        -5.0510   -4.1790    1.7900 c         1 MOL      0.573581
     65 O12        -5.0570   -4.8380    2.7930 o         1 MOL     -0.568429
     66 H26        -5.8580   -1.5130    0.4490 hn        1 MOL      0.208611
     67 H27        -7.2310   -3.8690    1.3720 h1        1 MOL      0.114166
     68 H28        -6.4580   -2.7380    2.3890 h1        1 MOL      0.114166
     69 N8         -3.9540   -4.1020    0.9760 n         1 MOL     -0.299766
     70 C22        -2.6390   -4.6550    1.2940 c3        1 MOL      0.005031
     71 C23        -1.5980   -3.5820    1.3970 c         1 MOL      0.430573
     72 O13        -1.7300   -2.5990    0.7000 o         1 MOL     -0.381345
     73 C24        -2.1650   -5.5680    0.1530 c3        1 MOL      0.387650
     74 C25        -2.9540   -6.9120    0.3070 c3        1 MOL     -0.419360
     75 O14        -2.3820   -5.1190   -1.1500 oh        1 MOL     -0.539640
     76 H29        -4.0320   -3.6000    0.1010 hn        1 MOL      0.228963
     77 H30        -2.7320   -5.1200    2.2770 h1        1 MOL      0.065676
     78 H31        -1.1290   -5.8900    0.2900 h1        1 MOL     -0.011444
     79 H32        -1.8910   -4.3030   -1.2800 ho        1 MOL      0.330161
     80 H33        -2.9700   -7.2590    1.3440 hc        1 MOL      0.099400
     81 H34        -4.0080   -6.8310    0.0520 hc        1 MOL      0.099400
     82 H35        -2.5610   -7.6740   -0.3780 hc        1 MOL      0.099400
     83 N9         -0.5080   -3.7300    2.1150 n         1 MOL     -0.505678
     84 C26         0.6320   -2.8640    2.1190 c3        1 MOL      0.066768
     85 C27         1.4630   -3.0880    0.8470 c         1 MOL      0.639356
     86 O15         1.9510   -4.1940    0.5240 o         1 MOL     -0.593776
     87 C28         1.4400   -3.0820    3.4290 c3        1 MOL     -0.043834
     88 C29         0.9200   -2.0880    4.5410 c3        1 MOL      0.185172
     89 C30         2.9540   -2.8660    3.2610 c3        1 MOL     -0.193285
     90 C31         1.6280   -2.2490    5.8600 c3        1 MOL     -0.331313
     91 H36        -0.4990   -4.7060    2.3910 hn        1 MOL      0.246342
     92 H37         0.2460   -1.8520    2.0930 h1        1 MOL      0.064107
     93 H38         1.2420   -4.1070    3.7180 hc        1 MOL      0.045737
     94 H39        -0.1480   -2.2050    4.6960 hc        1 MOL     -0.019731
     95 H40         1.1040   -1.0780    4.1920 hc        1 MOL     -0.019731
     96 H41         3.4600   -3.1990    4.1720 hc        1 MOL      0.051058
     97 H42         3.4070   -3.3290    2.3830 hc        1 MOL      0.051058
     98 H43         3.0620   -1.7910    3.1520 hc        1 MOL      0.051058
     99 H44         0.9800   -1.7880    6.5940 hc        1 MOL      0.072838
    100 H45         1.7730   -3.3220    6.0360 hc        1 MOL      0.072838
    101 H46         2.5460   -1.6630    5.8450 hc        1 MOL      0.072838
    102 N10         1.6180   -1.9590    0.1050 n         1 MOL     -0.173017
    103 C32         2.5300   -1.8850   -1.0320 c3        1 MOL     -0.098645
    104 C33         4.0090   -1.4430   -0.7370 c         1 MOL      0.644036
    105 O16         4.2790   -0.9650    0.3830 o         1 MOL     -0.452926
    106 C34         1.9010   -0.9830   -2.0680 c3        1 MOL     -0.255953
    107 C35         0.4480   -1.3670   -2.3750 c         1 MOL      0.827956
    108 O17        -0.4660   -0.8990   -1.7110 o         1 MOL     -0.683906
    109 O18         0.2820   -1.9550   -3.4860 o         1 MOL     -0.683906
    110 H47         1.0010   -1.1750    0.2410 hn        1 MOL     -0.152838
    111 H48         2.6010   -2.8790   -1.4830 h1        1 MOL      0.066565
    112 H49         2.4670   -1.1600   -2.9770 hc        1 MOL      0.066214
    113 H50         2.0090    0.0540   -1.7710 hc        1 MOL      0.066214
    114 N11         4.9020   -1.6340   -1.6750 n         1 MOL     -0.722326
    115 C36         6.3460   -1.4170   -1.4490 c3        1 MOL      0.475568
    116 C37         6.6910   -0.0550   -0.8150 c         1 MOL      0.160949
    117 O19         7.2800   -0.0870    0.2770 o         1 MOL     -0.481766
    118 C38         7.0630   -1.7310   -2.8010 c3        1 MOL     -0.418594
    119 C39         8.5620   -1.5410   -2.8020 ca        1 MOL      0.271072
    120 C40         9.1450   -0.6950   -3.7250 ca        1 MOL     -0.261487
    121 C41         9.4030   -2.3640   -2.0020 ca        1 MOL     -0.261487
    122 C42        10.5790   -0.6190   -3.7600 ca        1 MOL     -0.064512
    123 C43        10.8390   -2.3180   -2.0400 ca        1 MOL     -0.064512
    124 C44        11.4250   -1.3300   -2.8960 ca        1 MOL     -0.161098
    125 H51         4.6000   -2.1200   -2.5030 hn        1 MOL      0.374144
    126 H52         6.6750   -2.1850   -0.7450 h1        1 MOL      0.030924
    127 H53         6.6210   -1.2690   -3.6910 hc        1 MOL      0.106313
    128 H54         6.9410   -2.8020   -2.9550 hc        1 MOL      0.106313
    129 H55         8.5930   -0.1390   -4.4610 ha        1 MOL      0.146580
    130 H56         8.9950   -3.1100   -1.3330 ha        1 MOL      0.146580
    131 H57        11.0500   -0.0250   -4.5260 ha        1 MOL      0.101764
    132 H58        11.4930   -2.9640   -1.4690 ha        1 MOL      0.101764
    133 H59        12.5000   -1.2540   -2.9460 ha        1 MOL      0.114804
    134 N12         6.2990    1.0970   -1.3580 n         1 MOL      0.036040
    135 C45         6.6660    2.3460   -0.6870 c3        1 MOL      0.004910
    136 C46         5.9480    2.5660    0.6510 c         1 MOL      0.247550
    137 O20         6.3390    3.4740    1.4210 o         1 MOL     -0.516468
    138 C47         6.2020    3.4110   -1.6970 c3        1 MOL     -0.102271
    139 C48         5.8910    2.7180   -3.0400 c3        1 MOL      0.007500
    140 C49         5.5840    1.2940   -2.6200 c3        1 MOL     -0.044811
    141 H60         7.7330    2.4010   -0.4600 h1        1 MOL      0.103831
    142 H61         5.3040    3.9480   -1.3770 hc        1 MOL      0.056639
    143 H62         7.0400    4.0820   -1.8830 hc        1 MOL      0.056639
    144 H63         5.1030    3.3250   -3.4840 hc        1 MOL      0.015674
    145 H64         6.7870    2.7510   -3.6540 hc        1 MOL      0.015674
    146 H65         4.5000    1.1520   -2.6140 h1        1 MOL      0.052546
    147 H66         6.0300    0.7300   -3.4320 h1        1 MOL      0.052546
    148 N13         4.8640    1.8240    1.0080 n         1 MOL     -0.025703
    149 C50         4.1310    1.8290    2.3010 c3        1 MOL     -0.067124
    150 C51         4.8560    0.9070    3.3260 c         1 MOL      0.408129
    151 O21         4.6330    1.0990    4.5360 o         1 MOL     -0.553441
    152 C52         2.6390    1.4000    2.1260 c3        1 MOL      0.048231
    153 C53         1.8890    1.8520    0.8790 c3        1 MOL     -0.582081
    154 C54         0.4510    1.3100    0.8000 c         1 MOL      1.039120
    155 O22         0.0880    0.2270    1.3300 o         1 MOL     -0.796629
    156 O23        -0.4440    1.8890    0.1490 o         1 MOL     -0.796629
    157 H67         4.5260    1.1190    0.3710 hn        1 MOL      0.089986
    158 H68         4.0970    2.8610    2.6580 h1        1 MOL      0.097404
    159 H69         2.1080    1.7610    3.0130 hc        1 MOL      0.069478
    160 H70         2.5830    0.3160    2.2080 hc        1 MOL      0.069478
    161 H71         2.3320    1.4840   -0.0430 hc        1 MOL      0.183289
    162 H72         1.9200    2.9370    0.9320 hc        1 MOL      0.183289
    163 N14         5.6310   -0.0720    2.8180 n         1 MOL     -0.102328
    164 C55         6.4440   -0.9200    3.6800 c3        1 MOL     -0.073597
    165 H73         7.3270   -1.2510    3.1350 h1        1 MOL      0.044068
    166 H74         6.7500   -0.3570    4.5610 h1        1 MOL      0.044068
    167 H75         5.8620   -1.7890    3.9890 h1        1 MOL      0.044068
    168 H76         5.5550   -0.2560    1.8220 hn        1 MOL      0.148261
    169 Ca1        -2.1750   -0.0350   -0.0350 Ca        1 MOL      1.670572
    170 O24        -4.2960   -0.5350    1.5330 oh        1 MOL     -0.786149
    171 H77        -3.8720   -0.5510    2.3960 ho        1 MOL      0.385465
    172 H78        -4.8050    0.2780    1.5310 ho        1 MOL      0.385465
    173 O25        -2.0200    0.1250    2.9210 oh        1 MOL     -0.786149
    174 H79        -1.1590    0.4830    2.7300 ho        1 MOL      0.385465
    175 H80        -2.1400    0.2780    3.8600 ho        1 MOL      0.385465
@<TRIPOS>BOND
     1    1    2 1   
     2    1    4 1   
     3    1    5 1   
     4    1    6 1   
     5    2    3 2   
     6    2    7 1   
     7    7    8 1   
     8    7   15 1   
     9    8    9 1   
    10    8   11 1   
    11    8   16 1   
    12    9   10 2   
    13    9   19 1   
    14   11   12 1   
    15   11   17 1   
    16   11   18 1   
    17   12   13 1   
    18   12   14 1   
    19   19   20 1   
    20   19   24 1   
    21   20   21 1   
    22   20   23 1   
    23   20   25 1   
    24   21   22 2   
    25   21   29 1   
    26   23   26 1   
    27   23   27 1   
    28   23   28 1   
    29   29   30 1   
    30   29   37 1   
    31   30   31 1   
    32   30   33 1   
    33   30   38 1   
    34   31   32 2   
    35   31   41 1   
    36   33   34 1   
    37   33   39 1   
    38   33   40 1   
    39   34   35 1   
    40   34   36 1   
    41   41   42 1   
    42   41   45 1   
    43   42   43 1   
    44   42   46 1   
    45   42   47 1   
    46   43   44 2   
    47   43   48 1   
    48   48   49 1   
    49   48   56 1   
    50   49   50 1   
    51   49   52 1   
    52   49   57 1   
    53   50   51 2   
    54   50   62 1   
    55   52   53 1   
    56   52   58 1   
    57   52   59 1   
    58   53   54 1   
    59   53   55 2   
    60   54   60 1   
    61   54   61 1   
    62   62   63 1   
    63   62   66 1   
    64   63   64 1   
    65   63   67 1   
    66   63   68 1   
    67   64   65 2   
    68   64   69 1   
    69   69   70 1   
    70   69   76 1   
    71   70   71 1   
    72   70   73 1   
    73   70   77 1   
    74   71   72 2   
    75   71   83 1   
    76   73   74 1   
    77   73   75 1   
    78   73   78 1   
    79   74   80 1   
    80   74   81 1   
    81   74   82 1   
    82   75   79 1   
    83   83   84 1   
    84   83   91 1   
    85   84   85 1   
    86   84   87 1   
    87   84   92 1   
    88   85   86 2   
    89   85  102 1   
    90   87   88 1   
    91   87   89 1   
    92   87   93 1   
    93   88   90 1   
    94   88   94 1   
    95   88   95 1   
    96   89   96 1   
    97   89   97 1   
    98   89   98 1   
    99   90   99 1   
   100   90  100 1   
   101   90  101 1   
   102  102  103 1   
   103  102  110 1   
   104  103  104 1   
   105  103  106 1   
   106  103  111 1   
   107  104  105 2   
   108  104  114 1   
   109  106  107 1   
   110  106  112 1   
   111  106  113 1   
   112  107  108 1   
   113  107  109 1   
   114  114  115 1   
   115  114  125 1   
   116  115  116 1   
   117  115  118 1   
   118  115  126 1   
   119  116  117 2   
   120  116  134 1   
   121  118  119 1   
   122  118  127 1   
   123  118  128 1   
   124  119  120 ar  
   125  119  121 ar  
   126  120  122 ar  
   127  120  129 1   
   128  121  123 ar  
   129  121  130 1   
   130  122  124 ar  
   131  122  131 1   
   132  123  124 ar  
   133  123  132 1   
   134  124  133 1   
   135  134  135 1   
   136  134  140 1   
   137  135  136 1   
   138  135  138 1   
   139  135  141 1   
   140  136  137 2   
   141  136  148 1   
   142  138  139 1   
   143  138  142 1   
   144  138  143 1   
   145  139  140 1   
   146  139  144 1   
   147  139  145 1   
   148  140  146 1   
   149  140  147 1   
   150  148  149 1   
   151  148  157 1   
   152  149  150 1   
   153  149  152 1   
   154  149  158 1   
   155  150  151 2   
   156  150  163 1   
   157  152  153 1   
   158  152  159 1   
   159  152  160 1   
   160  153  154 1   
   161  153  161 1   
   162  153  162 1   
   163  154  155 1   
   164  154  156 1   
   165  163  164 1   
   166  163  168 1   
   167  164  165 1   
   168  164  166 1   
   169  164  167 1   
   170  170  171 1   
   171  170  172 1   
   172  173  174 1   
   173  173  175 1   
@<TRIPOS>SUBSTRUCTURE
     1 MOL         1 TEMP              0 ****  ****    0 ROOT
