@<TRIPOS>MOLECULE
MOL
  189   185     1     0     0
SMALL
resp


@<TRIPOS>ATOM
      1 C1          1.2940   -4.5450    5.7670 c3        1 MOL     -0.396739
      2 C2          1.9970   -3.7500    4.6430 c         1 MOL      0.705225
      3 O1          1.8670   -2.4960    4.5640 o         1 MOL     -0.603391
      4 H1          0.2300   -4.3100    5.7670 hc        1 MOL      0.108167
      5 H2          1.4290   -5.6140    5.5960 hc        1 MOL      0.108167
      6 H3          1.7260   -4.2730    6.7300 hc        1 MOL      0.108167
      7 N1          2.7430   -4.3870    3.7090 n         1 MOL     -0.553777
      8 C3          3.3260   -3.7950    2.4900 c3        1 MOL      0.129990
      9 C4          3.4760   -4.7120    1.3660 c         1 MOL      0.691938
     10 O2          3.8900   -5.8510    1.5140 o         1 MOL     -0.589868
     11 C5          4.5940   -3.0890    2.8680 c3        1 MOL     -0.374844
     12 C6          5.2990   -2.3470    1.7250 c         1 MOL      0.801494
     13 O3          6.4290   -2.0100    1.8590 o         1 MOL     -0.684734
     14 O4          4.5570   -1.8830    0.8400 o         1 MOL     -0.684734
     15 H4          2.7830   -5.3860    3.7790 hn        1 MOL      0.285156
     16 H5          2.5990   -3.0620    2.1160 h1        1 MOL      0.114574
     17 H6          5.3750   -3.7820    3.1770 hc        1 MOL      0.088010
     18 H7          4.3890   -2.3160    3.6080 hc        1 MOL      0.088010
     19 N2          3.0800   -4.2500    0.0810 n         1 MOL     -0.549408
     20 C7          3.2730   -5.0770   -1.2060 c3        1 MOL      0.032230
     21 C8          4.3440   -4.4640   -2.0920 c         1 MOL      0.581093
     22 O5          4.9510   -5.2080   -2.9090 o         1 MOL     -0.599707
     23 C9          1.9030   -5.0540   -1.9600 c3        1 MOL      0.142096
     24 C10         0.8710   -5.8670   -1.1420 c3        1 MOL      0.049259
     25 C11         2.0330   -5.5790   -3.3880 c3        1 MOL     -0.229281
     26 C12        -0.6470   -5.8460   -1.5890 c3        1 MOL     -0.143204
     27 H8          2.7480   -3.2940    0.0570 hn        1 MOL      0.074900
     28 H9          3.5520   -6.1170   -1.1010 h1        1 MOL      0.065474
     29 H10         1.5920   -4.0050   -2.0110 hc        1 MOL      0.058865
     30 H11         0.8820   -5.5960   -0.0850 hc        1 MOL     -0.007907
     31 H12         1.1830   -6.9130   -1.1220 hc        1 MOL     -0.007907
     32 H13         2.5930   -6.5120   -3.4450 hc        1 MOL      0.041613
     33 H14         1.0170   -5.7470   -3.7300 hc        1 MOL      0.041613
     34 H15         2.5270   -4.8240   -3.9980 hc        1 MOL      0.041613
     35 H16        -1.2900   -6.2100   -0.7860 hc        1 MOL      0.029852
     36 H17        -0.9040   -4.8890   -2.0320 hc        1 MOL      0.029852
     37 H18        -0.7560   -6.6040   -2.3660 hc        1 MOL      0.029852
     38 N3          4.6900   -3.1680   -2.0230 n         1 MOL     -0.509176
     39 C13         5.3460   -2.3610   -3.1220 c3        1 MOL      0.033594
     40 C14         6.3930   -1.4020   -2.6560 c         1 MOL      0.364978
     41 O6          7.0970   -0.7930   -3.4870 o         1 MOL     -0.539200
     42 C15         4.2390   -1.7420   -3.8540 c3        1 MOL     -0.129795
     43 C16         3.2200   -0.9840   -3.0180 c         1 MOL      0.807934
     44 O7          3.4650   -0.5790   -1.8850 o         1 MOL     -0.753880
     45 O8          2.0270   -0.9500   -3.3990 o         1 MOL     -0.753880
     46 H19         4.2200   -2.6120   -1.3160 hn        1 MOL      0.426499
     47 H20         5.8850   -2.9930   -3.8180 h1        1 MOL      0.109937
     48 H21         3.6570   -2.4530   -4.4340 hc        1 MOL      0.035348
     49 H22         4.5700   -1.0380   -4.6150 hc        1 MOL      0.035348
     50 N4          6.6190   -1.2320   -1.3500 n         1 MOL     -0.022140
     51 C17         7.7450   -0.4220   -0.9010 c3        1 MOL     -0.146515
     52 C18         7.7390    1.0810   -1.3700 c         1 MOL      0.423928
     53 O9          8.8200    1.6700   -1.6150 o         1 MOL     -0.585684
     54 H23         6.0770   -1.7010   -0.6410 hn        1 MOL      0.038973
     55 H24         8.6040   -0.9590   -1.2960 h1        1 MOL      0.081739
     56 H25         7.7290   -0.4390    0.1830 h1        1 MOL      0.081739
     57 N5          6.5420    1.6680   -1.4290 n         1 MOL     -0.114586
     58 C19         6.3490    3.0190   -1.9370 c3        1 MOL      0.027956
     59 C20         6.2300    4.0630   -0.7660 c         1 MOL      0.311198
     60 O10         5.9630    5.2260   -0.9630 o         1 MOL     -0.469406
     61 C21         5.1040    3.0300   -2.8330 c3        1 MOL     -0.261046
     62 C22         3.8040    2.7480   -2.1030 c         1 MOL      0.739719
     63 O11         3.7340    2.3250   -0.9400 o         1 MOL     -0.699223
     64 O12         2.7510    2.9030   -2.7260 o         1 MOL     -0.699223
     65 H26         5.7260    1.0870   -1.4080 hn        1 MOL      0.142616
     66 H27         7.2140    3.3220   -2.5430 h1        1 MOL      0.099568
     67 H28         5.2170    2.2610   -3.5930 hc        1 MOL      0.070322
     68 H29         4.9990    4.0150   -3.2940 hc        1 MOL      0.070322
     69 N6          6.4100    3.5710    0.4750 n         1 MOL     -0.175729
     70 C23         6.3430    4.4630    1.6340 c3        1 MOL     -0.194873
     71 C24         4.9090    5.0100    2.0640 c         1 MOL      0.539318
     72 O13         4.8010    5.7380    3.0040 o         1 MOL     -0.594942
     73 H30         6.7950    2.6530    0.6720 hn        1 MOL      0.219116
     74 H31         6.9880    5.3060    1.3870 h1        1 MOL      0.084058
     75 H32         6.8840    4.0110    2.4640 h1        1 MOL      0.084058
     76 N7          3.9250    4.4140    1.4700 n         1 MOL     -0.172290
     77 C25         2.4900    4.8410    1.7930 c3        1 MOL      0.030860
     78 C26         1.5300    3.6060    1.8410 c         1 MOL      0.441871
     79 O14         1.9650    2.4750    1.6710 o         1 MOL     -0.566606
     80 C27         2.0060    5.8620    0.6350 c3        1 MOL     -0.255371
     81 C28         2.2740    5.3540   -0.8210 c3        1 MOL      0.024558
     82 C29         1.4500    6.0070   -1.8930 c         1 MOL      0.588344
     83 N8          1.3090    5.4070   -3.0530 n         1 MOL     -0.753094
     84 O15         0.8100    7.0440   -1.6720 o         1 MOL     -0.609108
     85 H33         4.1570    3.6870    0.8150 hn        1 MOL      0.136235
     86 H34         2.4430    5.3080    2.7800 h1        1 MOL      0.075904
     87 H35         2.4640    6.8250    0.8550 hc        1 MOL      0.069496
     88 H36         0.9300    5.9820    0.7660 hc        1 MOL      0.069496
     89 H37         2.0260    4.3000   -0.8420 hc        1 MOL      0.064590
     90 H38         3.3500    5.4690   -1.0010 hc        1 MOL      0.064590
     91 H39         1.8040    4.5650   -3.2680 hn        1 MOL      0.345046
     92 H40         0.6320    5.7820   -3.7030 hn        1 MOL      0.345046
     93 N9          0.2050    3.8310    2.0250 n         1 MOL     -0.285112
     94 C30        -0.6530    2.7240    2.2550 c3        1 MOL      0.037331
     95 C31        -1.7330    2.7250    1.1300 c         1 MOL      0.400858
     96 O16        -2.4140    3.7370    0.9930 o         1 MOL     -0.549465
     97 C32        -1.2430    2.6940    3.6480 c3        1 MOL      0.117611
     98 C33        -2.2460    1.6100    3.8560 c3        1 MOL     -0.238102
     99 C34        -0.1280    2.4150    4.7130 c3        1 MOL     -0.238102
    100 H41        -0.1620    4.7790    2.1050 hn        1 MOL      0.251294
    101 H42        -0.0980    1.7980    2.0720 h1        1 MOL      0.029750
    102 H43        -1.6670    3.6700    3.8930 hc        1 MOL      0.001903
    103 H44        -3.0660    1.5840    3.1360 hc        1 MOL      0.053017
    104 H45        -1.7590    0.6460    3.7090 hc        1 MOL      0.053017
    105 H46        -2.6230    1.7070    4.8720 hc        1 MOL      0.053017
    106 H47         0.6300    3.1940    4.6980 hc        1 MOL      0.053017
    107 H48        -0.5890    2.3620    5.6970 hc        1 MOL      0.053017
    108 H49         0.2850    1.4190    4.5830 hc        1 MOL      0.053017
    109 N10        -1.8310    1.6330    0.3650 n         1 MOL     -0.106586
    110 C35        -2.9030    1.4500   -0.6410 c3        1 MOL     -0.160160
    111 C36        -4.3080    1.2570    0.0160 c         1 MOL      0.579684
    112 O17        -4.3860    0.7430    1.1170 o         1 MOL     -0.423295
    113 C37        -2.3970    0.2550   -1.4260 c3        1 MOL     -0.081457
    114 C38        -3.1920   -0.0530   -2.6400 c         1 MOL      0.627147
    115 N11        -2.7860   -1.0200   -3.4640 n         1 MOL     -0.794995
    116 O18        -4.1830    0.5960   -2.9340 o         1 MOL     -0.583331
    117 H50        -1.0580    0.9820    0.4080 hn        1 MOL      0.172817
    118 H51        -2.8440    2.3270   -1.2870 h1        1 MOL      0.093266
    119 H52        -2.3180   -0.6230   -0.7820 hc        1 MOL      0.093232
    120 H53        -1.3950    0.4610   -1.8060 hc        1 MOL      0.093232
    121 H54        -1.8770   -1.4330   -3.2960 hn        1 MOL      0.384414
    122 H55        -3.4240   -1.2440   -4.2200 hn        1 MOL      0.384414
    123 N12        -5.4340    1.5120   -0.6640 n         1 MOL     -0.801082
    124 C39        -6.7500    1.1060   -0.2220 c3        1 MOL      0.814277
    125 C40        -6.7550   -0.4910    0.1090 c         1 MOL      0.132229
    126 O19        -7.4230   -0.9090    1.0830 o         1 MOL     -0.498384
    127 C41        -7.7350    1.4870   -1.4130 c3        1 MOL     -0.288175
    128 C42        -9.0030    2.1810   -1.0810 ca        1 MOL     -0.034301
    129 C43        -9.7300    1.8420    0.1080 ca        1 MOL      0.030108
    130 C44        -9.4520    3.0770   -2.0310 ca        1 MOL      0.030108
    131 C45       -10.9840    2.4920    0.2690 ca        1 MOL     -0.416089
    132 C46       -10.6710    3.7040   -1.8210 ca        1 MOL     -0.416089
    133 C47       -11.4640    3.4450   -0.6960 ca        1 MOL      0.372987
    134 O20       -12.7020    3.9090   -0.5600 oh        1 MOL     -0.427252
    135 H56        -5.1420    1.8000   -1.5910 hn        1 MOL      0.373971
    136 H57        -7.1320    1.6870    0.6150 h1        1 MOL     -0.112909
    137 H58        -7.9830    0.5480   -1.9040 hc        1 MOL      0.065565
    138 H59        -7.1640    2.1170   -2.1060 hc        1 MOL      0.065565
    139 H60        -9.3210    1.1580    0.8370 ha        1 MOL      0.096592
    140 H61        -8.8880    3.2820   -2.9230 ha        1 MOL      0.096592
    141 H62       -11.6080    2.1640    1.0800 ha        1 MOL      0.165254
    142 H63       -11.1550    4.3590   -2.5410 ha        1 MOL      0.165254
    143 H64       -12.8260    4.5280   -1.2820 ho        1 MOL      0.296687
    144 N13        -6.1720   -1.3140   -0.7620 n         1 MOL      0.070449
    145 C48        -5.9790   -2.7650   -0.7340 c3        1 MOL     -0.105308
    146 C49        -4.8720   -3.2390    0.2220 c         1 MOL      0.523671
    147 O21        -4.6930   -4.4480    0.4570 o         1 MOL     -0.566495
    148 C50        -5.6730   -3.3270   -2.1420 c3        1 MOL     -0.135445
    149 C51        -6.7000   -2.7400   -3.1760 c3        1 MOL      0.076127
    150 C52        -8.1380   -2.8490   -2.6340 c         1 MOL      0.691899
    151 O22        -8.7760   -1.7890   -2.7110 o         1 MOL     -0.716409
    152 O23        -8.6570   -3.9530   -2.2690 o         1 MOL     -0.716409
    153 H65        -5.6990   -0.8560   -1.5340 hn        1 MOL      0.160694
    154 H66        -6.8330   -3.3300   -0.3620 h1        1 MOL      0.120659
    155 H67        -5.8400   -4.4030   -2.1350 hc        1 MOL      0.027565
    156 H68        -4.6160   -3.1400   -2.3360 hc        1 MOL      0.027565
    157 H69        -6.6270   -3.3490   -4.0770 hc        1 MOL     -0.070010
    158 H70        -6.5200   -1.7080   -3.4610 hc        1 MOL     -0.070010
    159 N14        -4.2310   -2.2700    0.9100 n         1 MOL     -0.209115
    160 C53        -3.3260   -2.4760    2.1260 c3        1 MOL      0.030533
    161 C54        -4.0050   -2.0260    3.4240 c         1 MOL      0.449692
    162 O24        -3.7930   -2.7180    4.4260 o         1 MOL     -0.569437
    163 C55        -2.0420   -1.6790    1.8920 c3        1 MOL      0.005071
    164 C56        -1.0730   -2.4130    1.0010 c3        1 MOL     -0.185868
    165 C57         0.1890   -1.5710    0.6790 c         1 MOL      0.633682
    166 O25         1.1750   -1.9480    0.0370 o         1 MOL     -0.638185
    167 O26         0.2050   -0.3060    0.8610 o         1 MOL     -0.638185
    168 H71        -4.4040   -1.3440    0.5440 hn        1 MOL     -0.082565
    169 H72        -3.0780   -3.5330    2.2550 h1        1 MOL      0.068430
    170 H73        -1.6230   -1.5330    2.8820 hc        1 MOL      0.062365
    171 H74        -2.3620   -0.7230    1.4640 hc        1 MOL      0.062365
    172 H75        -1.5070   -2.8100    0.0800 hc        1 MOL      0.054282
    173 H76        -0.6920   -3.1970    1.6470 hc        1 MOL      0.054282
    174 N15        -4.6960   -0.8830    3.4870 n         1 MOL     -0.154839
    175 C58        -5.2430   -0.4380    4.7510 c3        1 MOL     -0.116767
    176 H77        -6.3040   -0.2180    4.6300 h1        1 MOL      0.058278
    177 H78        -5.1170   -1.2210    5.4980 h1        1 MOL      0.058278
    178 H79        -4.7210    0.4620    5.0770 h1        1 MOL      0.058278
    179 H80        -4.7430   -0.3180    2.6510 hn        1 MOL      0.150987
    180 Ca1         2.6880    0.2810    0.3590 Ca        1 MOL      1.765928
    181 O27         2.6360   -0.4690    2.9140 oh        1 MOL     -0.918956
    182 H81         2.8810    0.2450    3.5120 ho        1 MOL      0.430871
    183 H82         2.2760   -1.1480    3.4730 ho        1 MOL      0.430871
    184 O28         1.1310    1.0370   -1.5730 oh        1 MOL     -0.918956
    185 H83         1.5640    1.7000   -2.1020 ho        1 MOL      0.430871
    186 H84         1.2730    0.2180   -2.0420 ho        1 MOL      0.430871
    187 O29         5.0440    0.7170    1.6050 oh        1 MOL     -0.918956
    188 H85         5.2360   -0.1680    1.3080 ho        1 MOL      0.430871
    189 H86         5.5270    0.8150    2.4220 ho        1 MOL      0.430871
@<TRIPOS>BOND
     1    1    2 1   
     2    1    4 1   
     3    1    5 1   
     4    1    6 1   
     5    2    3 2   
     6    2    7 1   
     7    7    8 1   
     8    7   15 1   
     9    8    9 1   
    10    8   11 1   
    11    8   16 1   
    12    9   10 2   
    13    9   19 1   
    14   11   12 1   
    15   11   17 1   
    16   11   18 1   
    17   12   13 1   
    18   12   14 1   
    19   19   20 1   
    20   19   27 1   
    21   20   21 1   
    22   20   23 1   
    23   20   28 1   
    24   21   22 2   
    25   21   38 1   
    26   23   24 1   
    27   23   25 1   
    28   23   29 1   
    29   24   26 1   
    30   24   30 1   
    31   24   31 1   
    32   25   32 1   
    33   25   33 1   
    34   25   34 1   
    35   26   35 1   
    36   26   36 1   
    37   26   37 1   
    38   38   39 1   
    39   38   46 1   
    40   39   40 1   
    41   39   42 1   
    42   39   47 1   
    43   40   41 2   
    44   40   50 1   
    45   42   43 1   
    46   42   48 1   
    47   42   49 1   
    48   43   44 1   
    49   43   45 1   
    50   50   51 1   
    51   50   54 1   
    52   51   52 1   
    53   51   55 1   
    54   51   56 1   
    55   52   53 2   
    56   52   57 1   
    57   57   58 1   
    58   57   65 1   
    59   58   59 1   
    60   58   61 1   
    61   58   66 1   
    62   59   60 2   
    63   59   69 1   
    64   61   62 1   
    65   61   67 1   
    66   61   68 1   
    67   62   63 1   
    68   62   64 1   
    69   69   70 1   
    70   69   73 1   
    71   70   71 1   
    72   70   74 1   
    73   70   75 1   
    74   71   72 2   
    75   71   76 1   
    76   76   77 1   
    77   76   85 1   
    78   77   78 1   
    79   77   80 1   
    80   77   86 1   
    81   78   79 2   
    82   78   93 1   
    83   80   81 1   
    84   80   87 1   
    85   80   88 1   
    86   81   82 1   
    87   81   89 1   
    88   81   90 1   
    89   82   83 1   
    90   82   84 2   
    91   83   91 1   
    92   83   92 1   
    93   93   94 1   
    94   93  100 1   
    95   94   95 1   
    96   94   97 1   
    97   94  101 1   
    98   95   96 2   
    99   95  109 1   
   100   97   98 1   
   101   97   99 1   
   102   97  102 1   
   103   98  103 1   
   104   98  104 1   
   105   98  105 1   
   106   99  106 1   
   107   99  107 1   
   108   99  108 1   
   109  109  110 1   
   110  109  117 1   
   111  110  111 1   
   112  110  113 1   
   113  110  118 1   
   114  111  112 2   
   115  111  123 1   
   116  113  114 1   
   117  113  119 1   
   118  113  120 1   
   119  114  115 1   
   120  114  116 2   
   121  115  121 1   
   122  115  122 1   
   123  123  124 1   
   124  123  135 1   
   125  124  125 1   
   126  124  127 1   
   127  124  136 1   
   128  125  126 2   
   129  125  144 1   
   130  127  128 1   
   131  127  137 1   
   132  127  138 1   
   133  128  129 ar  
   134  128  130 ar  
   135  129  131 ar  
   136  129  139 1   
   137  130  132 ar  
   138  130  140 1   
   139  131  133 ar  
   140  131  141 1   
   141  132  133 ar  
   142  132  142 1   
   143  133  134 1   
   144  134  143 1   
   145  144  145 1   
   146  144  153 1   
   147  145  146 1   
   148  145  148 1   
   149  145  154 1   
   150  146  147 2   
   151  146  159 1   
   152  148  149 1   
   153  148  155 1   
   154  148  156 1   
   155  149  150 1   
   156  149  157 1   
   157  149  158 1   
   158  150  151 1   
   159  150  152 1   
   160  159  160 1   
   161  159  168 1   
   162  160  161 1   
   163  160  163 1   
   164  160  169 1   
   165  161  162 2   
   166  161  174 1   
   167  163  164 1   
   168  163  170 1   
   169  163  171 1   
   170  164  165 1   
   171  164  172 1   
   172  164  173 1   
   173  165  166 1   
   174  165  167 1   
   175  174  175 1   
   176  174  179 1   
   177  175  176 1   
   178  175  177 1   
   179  175  178 1   
   180  181  182 1   
   181  181  183 1   
   182  184  185 1   
   183  184  186 1   
   184  187  188 1   
   185  187  189 1   
@<TRIPOS>SUBSTRUCTURE
     1 MOL         1 TEMP              0 ****  ****    0 ROOT
