@<TRIPOS>MOLECULE
MOL
  179   176     1     0     0
SMALL
resp


@<TRIPOS>ATOM
      1 C1          2.3260    1.3440    5.9020 c3        1 MOL     -0.372252
      2 C2          1.6540    1.3310    4.5270 c         1 MOL      0.805066
      3 O1          2.3400    1.3240    3.5160 o         1 MOL     -0.632648
      4 H1          2.8710    2.2800    6.0300 hc        1 MOL      0.098454
      5 H2          1.5670    1.2580    6.6790 hc        1 MOL      0.098454
      6 H3          3.0200    0.5070    5.9760 hc        1 MOL      0.098454
      7 N1          0.3210    1.3630    4.3800 n         1 MOL     -0.540263
      8 C3         -0.4250    1.5780    3.1090 c3        1 MOL     -0.091690
      9 C4         -0.2260    2.9960    2.5370 c         1 MOL      0.512367
     10 O2         -0.8400    3.9740    2.9750 o         1 MOL     -0.509743
     11 C5         -1.8950    1.3700    3.4180 c3        1 MOL      0.002721
     12 C6         -2.7010    1.2310    2.0770 c         1 MOL      0.690151
     13 O3         -2.1620    1.3130    0.9320 o         1 MOL     -0.757679
     14 O4         -3.9110    0.9250    2.0980 o         1 MOL     -0.757679
     15 H4         -0.3000    1.2360    5.1630 hn        1 MOL      0.303447
     16 H5         -0.1750    0.8880    2.3070 h1        1 MOL      0.069290
     17 H6         -2.3720    2.0370    4.1430 hc        1 MOL      0.035958
     18 H7         -1.9550    0.4340    3.9710 hc        1 MOL      0.035958
     19 N2          0.6640    3.1630    1.5310 n         1 MOL     -0.241731
     20 C7          1.1010    4.5030    1.0380 c3        1 MOL     -0.029137
     21 C8          0.0720    5.3890    0.3110 c         1 MOL      0.385465
     22 O5         -0.1280    6.5740    0.6440 o         1 MOL     -0.516387
     23 C9          2.3890    4.3730    0.1430 c3        1 MOL     -0.112279
     24 C10         3.0130    5.8420    0.1150 c3        1 MOL     -0.293476
     25 C11         4.1540    5.9740   -0.9030 c3        1 MOL      0.145633
     26 C12         4.8750    7.2980   -0.6960 c3        1 MOL     -0.003587
     27 N3          5.8380    7.4850   -1.8790 n4        1 MOL     -0.363499
     28 H8          1.2010    2.3370    1.3100 hn        1 MOL      0.200799
     29 H9          1.4310    5.1000    1.8920 h1        1 MOL      0.098119
     30 H10         2.2660    3.9740   -0.8710 hc        1 MOL      0.118558
     31 H11         3.0910    3.6380    0.5470 hc        1 MOL      0.118558
     32 H12         3.5700    6.0100    1.0370 hc        1 MOL      0.101377
     33 H13         2.2540    6.6240    0.0390 hc        1 MOL      0.101377
     34 H14         3.7190    5.9270   -1.8980 hc        1 MOL     -0.001794
     35 H15         4.8070    5.1230   -0.7500 hc        1 MOL     -0.001794
     36 H16         5.3090    7.2170    0.2980 hx        1 MOL      0.099932
     37 H17         4.1560    8.1170   -0.7190 hx        1 MOL      0.099932
     38 H18         5.4480    7.1230   -2.7350 hn        1 MOL      0.324709
     39 H19         6.1520    8.4390   -1.8890 hn        1 MOL      0.324709
     40 H20         6.7150    7.0110   -1.7200 hn        1 MOL      0.324709
     41 N4         -0.6910    4.8430   -0.6490 n         1 MOL     -0.215755
     42 C13        -1.8350    5.5350   -1.2480 c3        1 MOL      0.069035
     43 C14        -3.1410    5.3040   -0.4260 c         1 MOL      0.440830
     44 O6         -4.0700    6.0600   -0.5900 o         1 MOL     -0.565389
     45 C15        -1.9780    5.1000   -2.7350 c3        1 MOL     -0.286169
     46 C16        -2.1640    3.6430   -2.9930 c         1 MOL      0.868063
     47 O7         -2.0810    3.2680   -4.2590 o         1 MOL     -0.757646
     48 O8         -2.3900    2.8780   -2.0460 o         1 MOL     -0.757646
     49 H21        -0.3180    3.9870   -1.0440 hn        1 MOL      0.214773
     50 H22        -1.6790    6.6120   -1.3170 h1        1 MOL      0.070471
     51 H23        -1.0630    5.2370   -3.3190 hc        1 MOL      0.068493
     52 H24        -2.8160    5.5880   -3.2280 hc        1 MOL      0.068493
     53 N5         -3.1650    4.2910    0.3590 n         1 MOL      0.042819
     54 C17        -4.2910    3.9160    1.2150 c3        1 MOL     -0.153939
     55 C18        -5.4170    3.1580    0.5410 c         1 MOL      0.525839
     56 O9         -6.5950    3.2180    0.8710 o         1 MOL     -0.554187
     57 H25        -2.3510    3.7030    0.4460 hn        1 MOL     -0.037758
     58 H26        -4.7290    4.8610    1.5210 h1        1 MOL      0.096496
     59 H27        -3.8870    3.4830    2.1310 h1        1 MOL      0.096496
     60 N6         -5.0900    2.3990   -0.5500 n         1 MOL     -0.202316
     61 C19        -6.0320    1.5520   -1.3310 c3        1 MOL     -0.179949
     62 C20        -6.6370    0.3530   -0.5660 c         1 MOL      0.370756
     63 O10        -7.4760   -0.3660   -1.0890 o         1 MOL     -0.505409
     64 C21        -5.4400    1.0660   -2.7230 c3        1 MOL     -0.118703
     65 C22        -4.5460   -0.1330   -2.5940 c         1 MOL      0.561846
     66 N7         -4.8240   -1.1330   -3.3870 n         1 MOL     -0.753308
     67 O11        -3.6810   -0.2730   -1.7480 o         1 MOL     -0.535257
     68 H28        -4.1630    2.4200   -0.9400 hn        1 MOL      0.162510
     69 H29        -6.9090    2.1690   -1.5360 h1        1 MOL      0.151702
     70 H30        -4.8900    1.8750   -3.1970 hc        1 MOL      0.084302
     71 H31        -6.2270    0.7820   -3.4170 hc        1 MOL      0.084302
     72 H32        -5.6410   -1.0970   -3.9840 hn        1 MOL      0.363848
     73 H33        -4.5820   -2.0620   -3.0940 hn        1 MOL      0.363848
     74 N8         -6.1750    0.1080    0.6460 n         1 MOL     -0.095574
     75 C23        -6.5680   -1.0130    1.5390 c3        1 MOL     -0.408966
     76 C24        -5.6140   -2.1900    1.6560 c         1 MOL      0.646785
     77 O12        -5.9100   -3.2670    2.1790 o         1 MOL     -0.537814
     78 H34        -5.4430    0.7410    0.9320 hn        1 MOL      0.308666
     79 H35        -7.5400   -1.3820    1.2020 h1        1 MOL      0.167070
     80 H36        -6.7520   -0.6310    2.5410 h1        1 MOL      0.167070
     81 N9         -4.3780   -2.0010    1.0970 n         1 MOL     -0.550675
     82 C25        -3.3570   -3.0700    1.0360 c3        1 MOL      0.095982
     83 C26        -1.9570   -2.5040    1.1110 c         1 MOL      0.584473
     84 O13        -1.7190   -1.4410    0.5300 o         1 MOL     -0.615793
     85 C27        -3.6480   -3.8170   -0.2340 c3        1 MOL      0.405299
     86 C28        -5.0510   -4.4890   -0.5430 ca        1 MOL     -0.355270
     87 C29        -6.0650   -3.6660   -0.9730 ca        1 MOL      0.039535
     88 C30        -5.2780   -5.8340   -0.3370 ca        1 MOL      0.039535
     89 C31        -7.3180   -4.1920   -1.3360 ca        1 MOL     -0.398025
     90 C32        -6.5480   -6.3970   -0.5860 ca        1 MOL     -0.398025
     91 C33        -7.5900   -5.5540   -1.0440 ca        1 MOL      0.524227
     92 O14        -8.7810   -6.0410   -1.3500 oh        1 MOL     -0.509165
     93 H37        -4.2280   -1.0320    0.8410 hn        1 MOL      0.375721
     94 H38        -3.4300   -3.8230    1.8230 h1        1 MOL      0.025977
     95 H39        -2.9280   -4.6210   -0.3050 hc        1 MOL     -0.079830
     96 H40        -3.2770   -3.2020   -1.0440 hc        1 MOL     -0.079830
     97 H41        -5.8900   -2.6200   -1.1760 ha        1 MOL      0.090085
     98 H42        -4.5210   -6.4210    0.1510 ha        1 MOL      0.090085
     99 H43        -8.0710   -3.5890   -1.8180 ha        1 MOL      0.161000
    100 H44        -6.7790   -7.4340   -0.3790 ha        1 MOL      0.161000
    101 H45        -8.8280   -7.0020   -1.4120 ho        1 MOL      0.359597
    102 N10        -0.9330   -3.3010    1.5280 n         1 MOL     -0.553260
    103 C34         0.5310   -2.9520    1.6090 c3        1 MOL      0.099446
    104 C35         1.3630   -3.7800    0.6590 c         1 MOL      0.503496
    105 O15         1.4110   -4.9630    0.8790 o         1 MOL     -0.549640
    106 C36         1.0920   -3.0330    3.0440 c3        1 MOL      0.275327
    107 C37         0.1420   -2.5880    4.2220 c3        1 MOL      0.269915
    108 C38         2.4170   -2.2680    3.1190 c3        1 MOL     -0.519636
    109 C39         0.4940   -3.2370    5.5390 c3        1 MOL     -0.246443
    110 H46        -1.2040   -4.1110    2.0680 hn        1 MOL      0.297510
    111 H47         0.6490   -1.9050    1.3190 h1        1 MOL      0.053256
    112 H48         1.1310   -4.1130    3.2160 hc        1 MOL     -0.050541
    113 H49        -0.9060   -2.7970    4.0150 hc        1 MOL     -0.086190
    114 H50         0.4010   -1.5270    4.2780 hc        1 MOL     -0.086190
    115 H51         3.1360   -2.5510    2.3470 hc        1 MOL      0.109025
    116 H52         2.2550   -1.1970    3.1160 hc        1 MOL      0.109025
    117 H53         2.8450   -2.3900    4.1100 hc        1 MOL      0.109025
    118 H54         0.3650   -4.3180    5.4420 hc        1 MOL      0.048692
    119 H55         1.5480   -3.0790    5.7470 hc        1 MOL      0.048692
    120 H56        -0.1080   -2.8430    6.3550 hc        1 MOL      0.048692
    121 N11         2.0700   -3.2140   -0.3330 n         1 MOL     -0.378732
    122 C40         2.9730   -3.9020   -1.2420 c3        1 MOL      0.208877
    123 C41         4.4570   -3.9320   -0.6970 c         1 MOL      0.368425
    124 O16         4.7950   -3.1140    0.1480 o         1 MOL     -0.351004
    125 C42         2.9570   -3.2270   -2.6450 c3        1 MOL     -0.330426
    126 O17         4.0330   -2.3210   -2.8930 oh        1 MOL     -0.365451
    127 H57         1.8830   -2.2350   -0.5220 hn        1 MOL      0.324434
    128 H58         2.6190   -4.9320   -1.3020 h1        1 MOL      0.036345
    129 H59         2.0420   -2.6540   -2.7800 h1        1 MOL      0.144144
    130 H60         3.0950   -4.0120   -3.3860 h1        1 MOL      0.144144
    131 H61         3.8010   -2.0360   -3.7800 ho        1 MOL      0.349594
    132 N12         5.3960   -4.7970   -1.1930 n         1 MOL     -0.510165
    133 C43         6.7770   -4.7970   -0.7200 c3        1 MOL      0.307999
    134 C44         7.5170   -3.5850   -1.2080 c         1 MOL      0.346615
    135 O18         8.4370   -3.1690   -0.5730 o         1 MOL     -0.492743
    136 C45         7.4000   -6.0960   -1.0950 c3        1 MOL     -0.409379
    137 H62         5.0990   -5.5320   -1.8130 hn        1 MOL      0.296510
    138 H63         6.7590   -4.7150    0.3750 h1        1 MOL      0.052751
    139 H64         7.2150   -6.3820   -2.1360 hc        1 MOL      0.116319
    140 H65         8.4640   -6.1010   -0.8650 hc        1 MOL      0.116319
    141 H66         6.9500   -6.8910   -0.4920 hc        1 MOL      0.116319
    142 N13         7.1090   -2.8370   -2.2910 n         1 MOL     -0.241068
    143 C46         7.6750   -1.4870   -2.4950 c3        1 MOL      0.077183
    144 C47         7.2080   -0.4260   -1.4590 c         1 MOL      0.383396
    145 O19         8.0300    0.3470   -0.9830 o         1 MOL     -0.491483
    146 C48         7.1900   -0.9940   -3.8000 c3        1 MOL     -0.201722
    147 H67         6.5780   -3.2900   -3.0210 hn        1 MOL      0.178627
    148 H68         8.7550   -1.4780   -2.6030 h1        1 MOL      0.089845
    149 H69         7.4550   -1.6710   -4.6150 hc        1 MOL      0.042207
    150 H70         6.0990   -0.9020   -3.7750 hc        1 MOL      0.042207
    151 H71         7.4710    0.0530   -3.8730 hc        1 MOL      0.042207
    152 N14         5.8960   -0.3710   -1.0870 n         1 MOL     -0.152068
    153 C49         5.3740    0.5870   -0.0600 c3        1 MOL     -0.284156
    154 C50         6.0130    0.4450    1.3230 c         1 MOL      0.394828
    155 O20         6.3690    1.4210    2.0630 o         1 MOL     -0.553560
    156 C51         3.8370    0.4300    0.0450 c3        1 MOL     -0.001204
    157 C52         3.2310    0.9620   -1.3080 c3        1 MOL      0.000059
    158 C53         1.7360    0.7670   -1.2300 c         1 MOL      0.786928
    159 O21         0.9330    1.7290   -1.3420 o         1 MOL     -0.811317
    160 O22         1.2890   -0.3880   -1.0380 o         1 MOL     -0.811317
    161 H72         5.2100   -0.9270   -1.5780 hn        1 MOL      0.264852
    162 H73         5.6650    1.5790   -0.3990 h1        1 MOL      0.140388
    163 H74         3.6610    1.1930    0.8020 hc        1 MOL      0.068868
    164 H75         3.5350   -0.5950    0.2410 hc        1 MOL      0.068868
    165 H76         3.5850    0.3400   -2.1220 hc        1 MOL     -0.056769
    166 H77         3.4840    2.0140   -1.4600 hc        1 MOL     -0.056769
    167 N15         6.2140   -0.7780    1.7220 n         1 MOL      0.028577
    168 C54         6.9120   -1.2450    2.9430 c3        1 MOL     -0.206845
    169 H78         7.3130   -0.3860    3.4820 h1        1 MOL      0.093822
    170 H79         6.2090   -1.7800    3.5830 h1        1 MOL      0.093822
    171 H80         7.7290   -1.9100    2.6620 h1        1 MOL      0.093822
    172 H81         5.8520   -1.4630    1.0780 hn        1 MOL      0.074312
    173 Ca1        -1.3160    0.3100   -1.3150 Ca        1 MOL      1.795322
    174 O23        -1.5660    0.5460   -3.9270 oh        1 MOL     -0.890210
    175 H82        -1.7890    0.0190   -4.6950 ho        1 MOL      0.413568
    176 H83        -1.5610    1.4530   -4.2480 ho        1 MOL      0.413568
    177 O24        -0.8150   -1.9680   -2.7130 oh        1 MOL     -0.890210
    178 H84        -0.3000   -1.7230   -3.4720 ho        1 MOL      0.413568
    179 H85        -1.3320   -2.7260   -3.0160 ho        1 MOL      0.413568
@<TRIPOS>BOND
     1    1    2 1   
     2    1    4 1   
     3    1    5 1   
     4    1    6 1   
     5    2    3 2   
     6    2    7 1   
     7    7    8 1   
     8    7   15 1   
     9    8    9 1   
    10    8   11 1   
    11    8   16 1   
    12    9   10 2   
    13    9   19 1   
    14   11   12 1   
    15   11   17 1   
    16   11   18 1   
    17   12   13 1   
    18   12   14 1   
    19   19   20 1   
    20   19   28 1   
    21   20   21 1   
    22   20   23 1   
    23   20   29 1   
    24   21   22 2   
    25   21   41 1   
    26   23   24 1   
    27   23   30 1   
    28   23   31 1   
    29   24   25 1   
    30   24   32 1   
    31   24   33 1   
    32   25   26 1   
    33   25   34 1   
    34   25   35 1   
    35   26   27 1   
    36   26   36 1   
    37   26   37 1   
    38   27   38 1   
    39   27   39 1   
    40   27   40 1   
    41   41   42 1   
    42   41   49 1   
    43   42   43 1   
    44   42   45 1   
    45   42   50 1   
    46   43   44 2   
    47   43   53 1   
    48   45   46 1   
    49   45   51 1   
    50   45   52 1   
    51   46   47 1   
    52   46   48 1   
    53   53   54 1   
    54   53   57 1   
    55   54   55 1   
    56   54   58 1   
    57   54   59 1   
    58   55   56 2   
    59   55   60 1   
    60   60   61 1   
    61   60   68 1   
    62   61   62 1   
    63   61   64 1   
    64   61   69 1   
    65   62   63 2   
    66   62   74 1   
    67   64   65 1   
    68   64   70 1   
    69   64   71 1   
    70   65   66 1   
    71   65   67 2   
    72   66   72 1   
    73   66   73 1   
    74   74   75 1   
    75   74   78 1   
    76   75   76 1   
    77   75   79 1   
    78   75   80 1   
    79   76   77 2   
    80   76   81 1   
    81   81   82 1   
    82   81   93 1   
    83   82   83 1   
    84   82   85 1   
    85   82   94 1   
    86   83   84 2   
    87   83  102 1   
    88   85   86 1   
    89   85   95 1   
    90   85   96 1   
    91   86   87 ar  
    92   86   88 ar  
    93   87   89 ar  
    94   87   97 1   
    95   88   90 ar  
    96   88   98 1   
    97   89   91 ar  
    98   89   99 1   
    99   90   91 ar  
   100   90  100 1   
   101   91   92 1   
   102   92  101 1   
   103  102  103 1   
   104  102  110 1   
   105  103  104 1   
   106  103  106 1   
   107  103  111 1   
   108  104  105 2   
   109  104  121 1   
   110  106  107 1   
   111  106  108 1   
   112  106  112 1   
   113  107  109 1   
   114  107  113 1   
   115  107  114 1   
   116  108  115 1   
   117  108  116 1   
   118  108  117 1   
   119  109  118 1   
   120  109  119 1   
   121  109  120 1   
   122  121  122 1   
   123  121  127 1   
   124  122  123 1   
   125  122  125 1   
   126  122  128 1   
   127  123  124 2   
   128  123  132 1   
   129  125  126 1   
   130  125  129 1   
   131  125  130 1   
   132  126  131 1   
   133  132  133 1   
   134  132  137 1   
   135  133  134 1   
   136  133  136 1   
   137  133  138 1   
   138  134  135 2   
   139  134  142 1   
   140  136  139 1   
   141  136  140 1   
   142  136  141 1   
   143  142  143 1   
   144  142  147 1   
   145  143  144 1   
   146  143  146 1   
   147  143  148 1   
   148  144  145 2   
   149  144  152 1   
   150  146  149 1   
   151  146  150 1   
   152  146  151 1   
   153  152  153 1   
   154  152  161 1   
   155  153  154 1   
   156  153  156 1   
   157  153  162 1   
   158  154  155 2   
   159  154  167 1   
   160  156  157 1   
   161  156  163 1   
   162  156  164 1   
   163  157  158 1   
   164  157  165 1   
   165  157  166 1   
   166  158  159 1   
   167  158  160 1   
   168  167  168 1   
   169  167  172 1   
   170  168  169 1   
   171  168  170 1   
   172  168  171 1   
   173  174  175 1   
   174  174  176 1   
   175  177  178 1   
   176  177  179 1   
@<TRIPOS>SUBSTRUCTURE
     1 MOL         1 TEMP              0 ****  ****    0 ROOT
