@<TRIPOS>MOLECULE
MOL
  179   176     1     0     0
SMALL
resp


@<TRIPOS>ATOM
      1 C1         -2.6220    3.2600   -3.7640 c3        1 MOL     -0.338753
      2 C2         -1.6600    2.9690   -2.6320 c         1 MOL      0.630986
      3 O1         -2.0490    3.1880   -1.4820 o         1 MOL     -0.580801
      4 H1         -3.4910    3.7900   -3.3750 hc        1 MOL      0.085624
      5 H2         -2.1260    3.8770   -4.5140 hc        1 MOL      0.085624
      6 H3         -2.9430    2.3220   -4.2180 hc        1 MOL      0.085624
      7 N1         -0.3490    2.7780   -2.9820 n         1 MOL     -0.539131
      8 C3          0.7230    2.6870   -2.0330 c3        1 MOL      0.174390
      9 C4          1.1630    4.0690   -1.5120 c         1 MOL      0.452204
     10 O2          2.3380    4.4100   -1.6240 o         1 MOL     -0.425712
     11 C5          1.9270    1.8600   -2.5000 c3        1 MOL     -0.135923
     12 C6          2.8130    1.3170   -1.4060 c         1 MOL      1.039719
     13 O3          3.9050    0.8050   -1.6360 o         1 MOL     -0.880466
     14 O4          2.4050    1.2460   -0.2050 o         1 MOL     -0.880466
     15 H4         -0.1830    2.6350   -3.9700 hn        1 MOL      0.308474
     16 H5          0.2700    2.1700   -1.1890 h1        1 MOL      0.010399
     17 H6          2.4800    2.5220   -3.1700 hc        1 MOL      0.008380
     18 H7          1.5450    0.9520   -2.9680 hc        1 MOL      0.008380
     19 N2          0.2200    4.8620   -0.9900 n         1 MOL     -0.519643
     20 C7          0.6520    6.2420   -0.4650 c3        1 MOL      0.084650
     21 C8          1.7190    6.1250    0.6420 c         1 MOL      0.477952
     22 O5          2.6450    6.9340    0.6200 o         1 MOL     -0.540503
     23 C9         -0.5960    7.1000    0.0280 c3        1 MOL     -0.264726
     24 C10        -1.6230    7.2890   -1.1140 c3        1 MOL      0.090417
     25 C11        -2.8660    7.9590   -0.4570 c3        1 MOL     -0.029049
     26 C12        -3.8500    8.4100   -1.5730 c3        1 MOL      0.003809
     27 N3         -4.8340    7.3680   -1.8630 n4        1 MOL     -0.444965
     28 H8         -0.7300    4.5390   -0.8600 hn        1 MOL      0.369325
     29 H9          1.2040    6.7630   -1.2490 h1        1 MOL      0.095881
     30 H10        -0.2520    8.0940    0.2700 hc        1 MOL      0.096103
     31 H11        -1.0530    6.6780    0.9280 hc        1 MOL      0.096103
     32 H12        -1.9170    6.3590   -1.6060 hc        1 MOL      0.004970
     33 H13        -1.1530    7.9180   -1.8750 hc        1 MOL      0.004970
     34 H14        -2.5660    8.8960    0.0070 hc        1 MOL      0.054960
     35 H15        -3.3310    7.3490    0.3280 hc        1 MOL      0.054960
     36 H16        -3.2850    8.6990   -2.4610 hx        1 MOL      0.087500
     37 H17        -4.3370    9.2890   -1.1560 hx        1 MOL      0.087500
     38 H18        -4.3180    6.6320   -2.3130 hn        1 MOL      0.360746
     39 H19        -5.3270    6.9980   -1.0710 hn        1 MOL      0.360746
     40 H20        -5.5330    7.8160   -2.4440 hn        1 MOL      0.360746
     41 N4          1.8210    4.9920    1.4210 n         1 MOL     -0.405161
     42 C13         2.9660    4.7860    2.3920 c3        1 MOL      0.073514
     43 C14         4.2460    4.3250    1.7130 c         1 MOL      0.416845
     44 O6          5.2440    4.2760    2.3590 o         1 MOL     -0.521892
     45 C15         2.6230    3.8730    3.5880 c3        1 MOL     -0.312588
     46 C16         2.1120    2.5350    3.0940 c         1 MOL      0.843303
     47 O7          0.9050    2.3460    2.8500 o         1 MOL     -0.754618
     48 O8          2.9230    1.6230    2.9730 o         1 MOL     -0.754618
     49 H21         0.9470    4.4810    1.4160 hn        1 MOL      0.252891
     50 H22         3.2150    5.7480    2.8390 h1        1 MOL      0.102086
     51 H23         1.8270    4.3700    4.1630 hc        1 MOL      0.082708
     52 H24         3.5520    3.7900    4.1460 hc        1 MOL      0.082708
     53 N5          4.2280    4.0260    0.3770 n         1 MOL     -0.043783
     54 C17         5.4310    3.6810   -0.3770 c3        1 MOL     -0.018860
     55 C18         6.2600    2.4990    0.0280 c         1 MOL      0.471169
     56 O9          7.4100    2.4780   -0.3670 o         1 MOL     -0.582858
     57 H25         3.4350    4.3200   -0.1890 hn        1 MOL      0.075373
     58 H26         6.1150    4.5250   -0.4390 h1        1 MOL      0.040515
     59 H27         5.1510    3.3600   -1.3910 h1        1 MOL      0.040515
     60 N6          5.7570    1.5970    0.8480 n         1 MOL     -0.132551
     61 C19         6.5570    0.4200    1.1770 c3        1 MOL     -0.054929
     62 C20         6.7060   -0.6830    0.1310 c         1 MOL      0.346529
     63 O10         7.5430   -1.6020    0.4030 o         1 MOL     -0.538324
     64 C21         6.0620   -0.1430    2.5070 c3        1 MOL     -0.384384
     65 C22         5.1070   -1.2860    2.3260 c         1 MOL      0.695166
     66 N7          5.4830   -2.3980    2.9440 n         1 MOL     -0.794139
     67 O11         4.0170   -1.2220    1.7150 o         1 MOL     -0.640530
     68 H28         4.8040    1.6990    1.1550 hn        1 MOL      0.105969
     69 H29         7.5390    0.8140    1.4340 h1        1 MOL      0.145780
     70 H30         5.5740    0.6240    3.1040 hc        1 MOL      0.153346
     71 H31         6.9610   -0.5430    2.9610 hc        1 MOL      0.153346
     72 H32         6.4170   -2.5060    3.3090 hn        1 MOL      0.375395
     73 H33         4.8050   -3.1390    2.9460 hn        1 MOL      0.375395
     74 N8          6.0660   -0.5840   -1.0180 n         1 MOL     -0.138819
     75 C23         6.2130   -1.5210   -2.1450 c3        1 MOL     -0.385085
     76 C24         5.1110   -2.5090   -2.2630 c         1 MOL      0.682307
     77 O12         5.2730   -3.3510   -3.0890 o         1 MOL     -0.543395
     78 H34         5.4220    0.1750   -1.1740 hn        1 MOL      0.348200
     79 H35         7.1930   -1.9650   -1.9980 h1        1 MOL      0.160013
     80 H36         6.1690   -1.0290   -3.1100 h1        1 MOL      0.160013
     81 N9          3.9710   -2.3180   -1.5530 n         1 MOL     -0.505219
     82 C25         2.8130   -3.2810   -1.5120 c3        1 MOL      0.111159
     83 C26         1.4910   -2.5060   -1.1950 c         1 MOL      0.588760
     84 O13         1.5160   -1.4980   -0.4910 o         1 MOL     -0.646107
     85 C27         3.0280   -4.4000   -0.5470 c3        1 MOL      0.377768
     86 C28         4.3020   -5.1250   -0.5340 ca        1 MOL     -0.231977
     87 C29         4.4030   -6.3970   -1.0910 ca        1 MOL     -0.082310
     88 C30         5.5050   -4.5150   -0.0700 ca        1 MOL     -0.082310
     89 C31         5.5880   -7.1250   -1.0700 ca        1 MOL     -0.172485
     90 C32         6.7340   -5.2070   -0.1010 ca        1 MOL     -0.172485
     91 C33         6.7400   -6.5070   -0.5630 ca        1 MOL      0.220537
     92 O14         7.9360   -7.1230   -0.7720 oh        1 MOL     -0.477894
     93 H37         3.9630   -1.5810   -0.8600 hn        1 MOL      0.342939
     94 H38         2.7060   -3.8120   -2.4600 h1        1 MOL      0.008234
     95 H39         2.2690   -5.1560   -0.7130 hc        1 MOL     -0.076051
     96 H40         2.7520   -4.0990    0.4630 hc        1 MOL     -0.076051
     97 H41         3.4990   -6.8980   -1.4250 ha        1 MOL      0.094307
     98 H42         5.4230   -3.4910    0.2500 ha        1 MOL      0.094307
     99 H43         5.5780   -8.1290   -1.4660 ha        1 MOL      0.128062
    100 H44         7.6330   -4.7430    0.2680 ha        1 MOL      0.128062
    101 H45         8.6050   -6.5530   -0.3720 ho        1 MOL      0.368566
    102 N10         0.3530   -3.1010   -1.6820 n         1 MOL     -0.514205
    103 C34        -0.9860   -2.6530   -1.3140 c3        1 MOL     -0.286760
    104 C35        -1.8520   -3.8310   -0.7680 c         1 MOL      0.409139
    105 O15        -1.4950   -5.0340   -1.1200 o         1 MOL     -0.523540
    106 C36        -1.7090   -1.8180   -2.4490 c3        1 MOL      0.058777
    107 C37        -2.2630   -2.7600   -3.6480 c3        1 MOL      0.001757
    108 C38        -0.8280   -0.7330   -3.0730 c3        1 MOL      0.077659
    109 C39        -3.2400   -2.2820   -4.6640 c3        1 MOL     -0.430820
    110 H46         0.4080   -4.0200   -2.0800 hn        1 MOL      0.331736
    111 H47        -0.8850   -1.9890   -0.4530 h1        1 MOL      0.253136
    112 H48        -2.4650   -1.2480   -1.9100 hc        1 MOL     -0.037764
    113 H49        -2.5740   -3.7590   -3.3420 hc        1 MOL      0.069362
    114 H50        -1.3930   -3.0210   -4.2660 hc        1 MOL      0.069362
    115 H51        -1.2090   -0.2790   -3.9890 hc        1 MOL      0.002967
    116 H52        -0.7490    0.0970   -2.3780 hc        1 MOL      0.002967
    117 H53         0.1140   -1.2010   -3.3620 hc        1 MOL      0.002967
    118 H54        -3.5750   -3.1640   -5.2050 hc        1 MOL      0.106783
    119 H55        -4.2230   -1.9360   -4.3030 hc        1 MOL      0.106783
    120 H56        -2.8050   -1.4670   -5.2350 hc        1 MOL      0.106783
    121 N11        -2.8760   -3.5020   -0.0150 n         1 MOL     -0.191365
    122 C40        -3.9710   -4.3700    0.4640 c3        1 MOL     -0.077482
    123 C41        -5.3080   -3.7450    0.1240 c         1 MOL      0.516199
    124 O16        -5.3870   -2.5520   -0.2710 o         1 MOL     -0.523725
    125 C42        -4.0070   -4.4200    2.0220 c3        1 MOL      0.092734
    126 O17        -4.0080   -3.1170    2.4970 oh        1 MOL     -0.577339
    127 H57        -3.0160   -2.5310    0.2250 hn        1 MOL      0.261565
    128 H58        -3.8220   -5.3870    0.0980 h1        1 MOL      0.071808
    129 H59        -3.1480   -4.9460    2.4290 h1        1 MOL      0.047117
    130 H60        -4.9010   -4.9890    2.3080 h1        1 MOL      0.047117
    131 H61        -3.2070   -2.6670    2.2250 ho        1 MOL      0.386493
    132 N12        -6.3870   -4.5190    0.3280 n         1 MOL     -0.460246
    133 C43        -7.7650   -4.0830    0.0840 c3        1 MOL      0.149848
    134 C44        -8.1880   -2.7230    0.7550 c         1 MOL      0.416807
    135 O18        -8.9080   -1.9410    0.0970 o         1 MOL     -0.506229
    136 C45        -8.5560   -5.3290    0.4110 c3        1 MOL     -0.297912
    137 H62        -6.2440   -5.4660    0.6640 hn        1 MOL      0.295700
    138 H63        -7.8370   -3.8290   -0.9750 h1        1 MOL      0.090304
    139 H64        -8.5530   -5.4770    1.4960 hc        1 MOL      0.090775
    140 H65        -9.5450   -5.1710   -0.0070 hc        1 MOL      0.090775
    141 H66        -8.1160   -6.2210   -0.0390 hc        1 MOL      0.090775
    142 N13        -7.7490   -2.3990    1.9690 n         1 MOL     -0.288631
    143 C46        -7.9350   -1.1180    2.7100 c3        1 MOL     -0.047045
    144 C47        -7.3970    0.1170    1.9010 c         1 MOL      0.419282
    145 O19        -8.0710    1.1480    1.8630 o         1 MOL     -0.509053
    146 C48        -7.5030   -1.2490    4.1920 c3        1 MOL     -0.238441
    147 H67        -7.5700   -3.2360    2.5150 hn        1 MOL      0.264586
    148 H68        -9.0050   -0.8960    2.6580 h1        1 MOL      0.102937
    149 H69        -8.0510   -2.0300    4.7010 hc        1 MOL      0.083422
    150 H70        -6.4330   -1.4630    4.2500 hc        1 MOL      0.083422
    151 H71        -7.6610   -0.3230    4.7580 hc        1 MOL      0.083422
    152 N14        -6.2710   -0.0880    1.1760 n         1 MOL      0.041625
    153 C49        -5.5600    0.9210    0.4230 c3        1 MOL     -0.503449
    154 C50        -6.2520    1.1040   -0.9150 c         1 MOL      0.642315
    155 O20        -6.3830    2.2440   -1.4240 o         1 MOL     -0.592383
    156 C51        -4.0690    0.6130    0.3730 c3        1 MOL      0.056955
    157 C52        -3.2340    0.5810    1.6990 c3        1 MOL      0.087667
    158 C53        -1.9120   -0.1750    1.5110 c         1 MOL      0.741275
    159 O21        -1.9790   -1.4090    1.6390 o         1 MOL     -0.763919
    160 O22        -0.8770    0.4460    1.1440 o         1 MOL     -0.763919
    161 H72        -5.8960   -1.0160    1.2680 hn        1 MOL      0.140894
    162 H73        -5.6370    1.8130    1.0340 h1        1 MOL      0.173006
    163 H74        -3.5600    1.2690   -0.3400 hc        1 MOL      0.061046
    164 H75        -3.9410   -0.3920   -0.0260 hc        1 MOL      0.061046
    165 H76        -3.8670    0.1090    2.4490 hc        1 MOL     -0.040155
    166 H77        -2.9840    1.5300    2.1650 hc        1 MOL     -0.040155
    167 N15        -6.7730    0.0120   -1.4990 n         1 MOL     -0.252972
    168 C54        -7.5930    0.0080   -2.7040 c3        1 MOL     -0.322827
    169 H78        -8.5140    0.5610   -2.5180 h1        1 MOL      0.128289
    170 H79        -7.0440    0.4800   -3.5180 h1        1 MOL      0.128289
    171 H80        -7.8350   -1.0200   -2.9760 h1        1 MOL      0.128289
    172 H81        -6.6800   -0.8450   -0.9740 hn        1 MOL      0.243247
    173 Ca1         1.5300   -0.1220    1.6210 Ca        1 MOL      1.804797
    174 O23         1.3500   -1.0610    4.1590 oh        1 MOL     -0.848392
    175 H82         1.2480   -0.6620    5.0240 ho        1 MOL      0.411436
    176 H83         1.1990   -1.9920    4.2930 ho        1 MOL      0.411436
    177 O24         0.3200   -2.5000    1.9080 oh        1 MOL     -0.848392
    178 H84        -0.6280   -2.3430    1.8910 ho        1 MOL      0.411436
    179 H85         0.3900   -3.4530    1.8190 ho        1 MOL      0.411436
@<TRIPOS>BOND
     1    1    2 1   
     2    1    4 1   
     3    1    5 1   
     4    1    6 1   
     5    2    3 2   
     6    2    7 1   
     7    7    8 1   
     8    7   15 1   
     9    8    9 1   
    10    8   11 1   
    11    8   16 1   
    12    9   10 2   
    13    9   19 1   
    14   11   12 1   
    15   11   17 1   
    16   11   18 1   
    17   12   13 1   
    18   12   14 1   
    19   19   20 1   
    20   19   28 1   
    21   20   21 1   
    22   20   23 1   
    23   20   29 1   
    24   21   22 2   
    25   21   41 1   
    26   23   24 1   
    27   23   30 1   
    28   23   31 1   
    29   24   25 1   
    30   24   32 1   
    31   24   33 1   
    32   25   26 1   
    33   25   34 1   
    34   25   35 1   
    35   26   27 1   
    36   26   36 1   
    37   26   37 1   
    38   27   38 1   
    39   27   39 1   
    40   27   40 1   
    41   41   42 1   
    42   41   49 1   
    43   42   43 1   
    44   42   45 1   
    45   42   50 1   
    46   43   44 2   
    47   43   53 1   
    48   45   46 1   
    49   45   51 1   
    50   45   52 1   
    51   46   47 1   
    52   46   48 1   
    53   53   54 1   
    54   53   57 1   
    55   54   55 1   
    56   54   58 1   
    57   54   59 1   
    58   55   56 2   
    59   55   60 1   
    60   60   61 1   
    61   60   68 1   
    62   61   62 1   
    63   61   64 1   
    64   61   69 1   
    65   62   63 2   
    66   62   74 1   
    67   64   65 1   
    68   64   70 1   
    69   64   71 1   
    70   65   66 1   
    71   65   67 2   
    72   66   72 1   
    73   66   73 1   
    74   74   75 1   
    75   74   78 1   
    76   75   76 1   
    77   75   79 1   
    78   75   80 1   
    79   76   77 2   
    80   76   81 1   
    81   81   82 1   
    82   81   93 1   
    83   82   83 1   
    84   82   85 1   
    85   82   94 1   
    86   83   84 2   
    87   83  102 1   
    88   85   86 1   
    89   85   95 1   
    90   85   96 1   
    91   86   87 ar  
    92   86   88 ar  
    93   87   89 ar  
    94   87   97 1   
    95   88   90 ar  
    96   88   98 1   
    97   89   91 ar  
    98   89   99 1   
    99   90   91 ar  
   100   90  100 1   
   101   91   92 1   
   102   92  101 1   
   103  102  103 1   
   104  102  110 1   
   105  103  104 1   
   106  103  106 1   
   107  103  111 1   
   108  104  105 2   
   109  104  121 1   
   110  106  107 1   
   111  106  108 1   
   112  106  112 1   
   113  107  109 1   
   114  107  113 1   
   115  107  114 1   
   116  108  115 1   
   117  108  116 1   
   118  108  117 1   
   119  109  118 1   
   120  109  119 1   
   121  109  120 1   
   122  121  122 1   
   123  121  127 1   
   124  122  123 1   
   125  122  125 1   
   126  122  128 1   
   127  123  124 2   
   128  123  132 1   
   129  125  126 1   
   130  125  129 1   
   131  125  130 1   
   132  126  131 1   
   133  132  133 1   
   134  132  137 1   
   135  133  134 1   
   136  133  136 1   
   137  133  138 1   
   138  134  135 2   
   139  134  142 1   
   140  136  139 1   
   141  136  140 1   
   142  136  141 1   
   143  142  143 1   
   144  142  147 1   
   145  143  144 1   
   146  143  146 1   
   147  143  148 1   
   148  144  145 2   
   149  144  152 1   
   150  146  149 1   
   151  146  150 1   
   152  146  151 1   
   153  152  153 1   
   154  152  161 1   
   155  153  154 1   
   156  153  156 1   
   157  153  162 1   
   158  154  155 2   
   159  154  167 1   
   160  156  157 1   
   161  156  163 1   
   162  156  164 1   
   163  157  158 1   
   164  157  165 1   
   165  157  166 1   
   166  158  159 1   
   167  158  160 1   
   168  167  168 1   
   169  167  172 1   
   170  168  169 1   
   171  168  170 1   
   172  168  171 1   
   173  174  175 1   
   174  174  176 1   
   175  177  178 1   
   176  177  179 1   
@<TRIPOS>SUBSTRUCTURE
     1 MOL         1 TEMP              0 ****  ****    0 ROOT
