@<TRIPOS>MOLECULE
MOL
  175   173     1     0     0
SMALL
resp


@<TRIPOS>ATOM
      1 C1         -0.1140    4.7870    5.2140 c3        1 MOL     -0.373262
      2 C2         -0.7350    4.7820    3.8180 c         1 MOL      0.738581
      3 O1         -0.0470    5.2260    2.9120 o         1 MOL     -0.550528
      4 H1         -0.4120    3.8840    5.7470 hc        1 MOL      0.083057
      5 H2          0.9720    4.8160    5.1280 hc        1 MOL      0.083057
      6 H3         -0.4590    5.6630    5.7630 hc        1 MOL      0.083057
      7 N1         -1.9680    4.2170    3.6740 n         1 MOL     -0.650157
      8 C3         -2.5540    3.8780    2.3590 c3        1 MOL      0.101119
      9 C4         -2.8380    5.0480    1.3820 c         1 MOL      0.431958
     10 O2         -3.1010    6.2270    1.7630 o         1 MOL     -0.545916
     11 C5         -3.9240    3.2490    2.5850 c3        1 MOL     -0.075176
     12 C6         -4.4010    2.6470    1.2830 c         1 MOL      0.633157
     13 O3         -5.5990    2.7380    1.0180 o         1 MOL     -0.663504
     14 O4         -3.5890    2.1430    0.5010 o         1 MOL     -0.663504
     15 H4         -2.3970    3.8430    4.5040 hn        1 MOL      0.325567
     16 H5         -1.9070    3.1300    1.8910 h1        1 MOL      0.040851
     17 H6         -4.6500    3.9970    2.9290 hc        1 MOL      0.017696
     18 H7         -3.9730    2.4850    3.3540 hc        1 MOL      0.017696
     19 N2         -2.8590    4.7430    0.1010 n         1 MOL     -0.243306
     20 C7         -3.3970    5.5720   -1.0050 c3        1 MOL      0.245726
     21 C8         -4.2790    4.8630   -2.1270 c         1 MOL      0.460211
     22 O5         -4.4330    5.4140   -3.1730 o         1 MOL     -0.553522
     23 C9         -2.1220    6.2230   -1.6510 c3        1 MOL     -0.271011
     24 H8         -2.3550    3.9210   -0.1760 hn        1 MOL      0.205548
     25 H9         -3.9580    6.3760   -0.5280 h1        1 MOL      0.002772
     26 H10        -2.3290    6.9900   -2.3960 hc        1 MOL      0.067860
     27 H11        -1.3700    6.5630   -0.9300 hc        1 MOL      0.067860
     28 H12        -1.5460    5.4350   -2.1340 hc        1 MOL      0.067860
     29 N3         -4.6700    3.6120   -1.9630 n         1 MOL     -0.399220
     30 C10        -5.1440    2.7010   -3.1000 c3        1 MOL      0.217057
     31 C11        -6.3360    1.7360   -2.8230 c         1 MOL      0.341692
     32 O6         -6.8330    1.0560   -3.6630 o         1 MOL     -0.543960
     33 C12        -3.9730    1.8590   -3.7540 c3        1 MOL     -0.419991
     34 C13        -3.2060    1.0660   -2.7140 c         1 MOL      0.900031
     35 O7         -3.9110    0.3070   -2.0020 o         1 MOL     -0.741049
     36 O8         -1.9700    1.1770   -2.6170 o         1 MOL     -0.741049
     37 H13        -4.4570    3.1270   -1.1000 hn        1 MOL      0.169763
     38 H14        -5.6070    3.3410   -3.8430 h1        1 MOL      0.067633
     39 H15        -3.2620    2.6010   -4.1070 hc        1 MOL      0.096057
     40 H16        -4.2980    1.1330   -4.5060 hc        1 MOL      0.096057
     41 N4         -6.7650    1.4960   -1.6070 n         1 MOL     -0.186034
     42 C14        -7.8770    0.6120   -1.1820 c3        1 MOL     -0.143871
     43 C15        -7.6190   -0.8550   -1.3770 c         1 MOL      0.455271
     44 O9         -8.5020   -1.7070   -1.1680 o         1 MOL     -0.609899
     45 H17        -6.2780    2.0180   -0.8930 hn        1 MOL      0.152780
     46 H18        -8.7030    0.9150   -1.8150 h1        1 MOL      0.109888
     47 H19        -8.2470    0.8840   -0.1950 h1        1 MOL      0.109888
     48 N5         -6.3580   -1.2630   -1.6900 n         1 MOL     -0.084588
     49 C16        -5.9950   -2.6670   -2.0070 c3        1 MOL     -0.020341
     50 C17        -5.8940   -3.6080   -0.8200 c         1 MOL      0.351455
     51 O10        -5.6000   -4.8420   -0.9460 o         1 MOL     -0.518382
     52 C18        -4.7610   -2.6880   -2.9150 c3        1 MOL     -0.182532
     53 C19        -3.4160   -2.3280   -2.2960 c         1 MOL      0.732105
     54 N6         -2.3840   -2.1740   -3.0580 n         1 MOL     -0.662071
     55 O11        -3.2200   -2.2410   -1.0460 o         1 MOL     -0.598431
     56 H20        -5.6530   -0.5480   -1.5630 hn        1 MOL      0.141616
     57 H21        -6.8000   -3.0090   -2.6560 h1        1 MOL      0.115625
     58 H22        -4.9190   -1.8760   -3.6170 hc        1 MOL      0.053422
     59 H23        -4.6590   -3.6370   -3.4380 hc        1 MOL      0.053422
     60 H24        -2.5910   -2.1840   -4.0480 hn        1 MOL      0.316184
     61 H25        -1.5130   -1.8910   -2.6370 hn        1 MOL      0.316184
     62 N7         -6.1730   -3.1230    0.4050 n         1 MOL     -0.092294
     63 C20        -6.1650   -3.6580    1.7400 c3        1 MOL     -0.377638
     64 C21        -4.7730   -4.1410    2.3290 c         1 MOL      0.564075
     65 O12        -4.7820   -4.8500    3.3360 o         1 MOL     -0.573349
     66 H26        -6.5170   -2.1770    0.2950 hn        1 MOL      0.209367
     67 H27        -6.6400   -4.6330    1.6260 h1        1 MOL      0.149543
     68 H28        -6.6770   -3.0680    2.4930 h1        1 MOL      0.149543
     69 N8         -3.6670   -3.7200    1.7470 n         1 MOL     -0.138164
     70 C22        -2.3820   -4.3690    1.7840 c3        1 MOL     -0.345733
     71 C23        -1.2570   -3.3600    1.7750 c         1 MOL      0.587421
     72 O13        -1.2920   -2.2940    1.2370 o         1 MOL     -0.531096
     73 C24        -2.2330   -5.4390    0.7670 c3        1 MOL      0.681538
     74 C25        -3.0590   -6.7110    1.0050 c3        1 MOL     -0.457612
     75 O14        -2.3840   -4.9750   -0.5560 oh        1 MOL     -0.618700
     76 H29        -3.7060   -3.0030    1.0450 hn        1 MOL      0.091801
     77 H30        -2.4500   -4.8860    2.7400 h1        1 MOL      0.087895
     78 H31        -1.2280   -5.8470    0.8180 h1        1 MOL     -0.053314
     79 H32        -2.6360   -4.0450   -0.5010 ho        1 MOL      0.322638
     80 H33        -4.1100   -6.6750    0.7530 hc        1 MOL      0.098205
     81 H34        -2.5690   -7.5640    0.5250 hc        1 MOL      0.098205
     82 H35        -3.1350   -6.9700    2.0620 hc        1 MOL      0.098205
     83 N9         -0.0950   -3.7540    2.2840 n         1 MOL     -0.452539
     84 C26         1.1290   -2.9150    2.0660 c3        1 MOL      0.130067
     85 C27         1.8030   -3.1890    0.7570 c         1 MOL      0.468845
     86 O15         2.0850   -4.3480    0.4160 o         1 MOL     -0.598018
     87 C28         2.1960   -3.2290    3.1770 c3        1 MOL     -0.063182
     88 C29         1.7370   -2.7200    4.5050 c3        1 MOL      0.041466
     89 C30         3.6700   -2.6630    2.9730 c3        1 MOL     -0.184245
     90 C31         1.5500   -1.1730    4.7070 c3        1 MOL     -0.070363
     91 H36        -0.0550   -4.6570    2.7450 hn        1 MOL      0.252721
     92 H37         0.8710   -1.8580    2.1140 h1        1 MOL      0.175380
     93 H38         2.2140   -4.3180    3.2760 hc        1 MOL      0.037699
     94 H39         2.4440   -3.0940    5.2380 hc        1 MOL     -0.013533
     95 H40         0.7770   -3.1170    4.8280 hc        1 MOL     -0.013533
     96 H41         4.2610   -3.1840    2.2290 hc        1 MOL      0.049889
     97 H42         3.6720   -1.5990    2.7550 hc        1 MOL      0.049889
     98 H43         4.2320   -2.6980    3.9160 hc        1 MOL      0.049889
     99 H44         0.9600   -0.7520    3.8930 hc        1 MOL      0.003529
    100 H45         0.9610   -1.0830    5.6180 hc        1 MOL      0.003529
    101 H46         2.5150   -0.6860    4.8010 hc        1 MOL      0.003529
    102 N10         1.8980   -2.1570   -0.0130 n         1 MOL     -0.031242
    103 C32         2.8080   -2.0380   -1.2530 c3        1 MOL      0.051132
    104 C33         4.2290   -1.5310   -0.8980 c         1 MOL      0.422085
    105 O16         4.4060   -0.9190    0.1380 o         1 MOL     -0.338750
    106 C34         2.1970   -0.9770   -2.2190 c3        1 MOL     -0.254336
    107 C35         0.7100   -1.2910   -2.4690 c         1 MOL      0.712928
    108 O17        -0.1890   -1.1070   -1.5610 o         1 MOL     -0.637557
    109 O18         0.4270   -1.6400   -3.6040 o         1 MOL     -0.637557
    110 H47         1.5300   -1.2590    0.2640 hn        1 MOL     -0.219452
    111 H48         2.8370   -3.0110   -1.7450 h1        1 MOL      0.064733
    112 H49         2.7470   -0.9200   -3.1680 hc        1 MOL      0.098550
    113 H50         2.2920   -0.0460   -1.6640 hc        1 MOL      0.098550
    114 N11         5.1870   -1.6670   -1.8390 n         1 MOL     -0.673179
    115 C36         6.6230   -1.4300   -1.5850 c3        1 MOL      0.409897
    116 C37         6.9240    0.0200   -1.0550 c         1 MOL      0.278595
    117 O19         7.5770    0.1190   -0.0580 o         1 MOL     -0.477486
    118 C38         7.5110   -1.8580   -2.7920 c3        1 MOL     -0.267644
    119 C39         9.0180   -1.6220   -2.5520 ca        1 MOL      0.236323
    120 C40         9.8000   -2.0380   -1.4060 ca        1 MOL     -0.319358
    121 C41         9.6870   -0.8360   -3.5670 ca        1 MOL     -0.319358
    122 C42        11.1440   -1.6550   -1.2780 ca        1 MOL      0.043624
    123 C43        11.0150   -0.4930   -3.3990 ca        1 MOL      0.043624
    124 C44        11.7280   -0.9500   -2.3190 ca        1 MOL     -0.234337
    125 H51         5.0010   -2.0440   -2.7560 hn        1 MOL      0.351406
    126 H52         7.0420   -2.0370   -0.7870 h1        1 MOL      0.027119
    127 H53         7.1790   -1.2530   -3.6380 hc        1 MOL      0.073508
    128 H54         7.3010   -2.8980   -3.0160 hc        1 MOL      0.073508
    129 H55         9.3410   -2.5430   -0.5650 ha        1 MOL      0.149673
    130 H56         9.1110   -0.5060   -4.4260 ha        1 MOL      0.149673
    131 H57        11.8230   -1.8650   -0.4680 ha        1 MOL      0.080395
    132 H58        11.5340    0.0970   -4.1340 ha        1 MOL      0.080395
    133 H59        12.8020   -0.8080   -2.2350 ha        1 MOL      0.112370
    134 N12         6.3080    1.1260   -1.5600 n         1 MOL      0.035081
    135 C45         6.6260    2.4420   -0.9590 c3        1 MOL     -0.124241
    136 C46         5.8870    2.6810    0.3660 c         1 MOL      0.401574
    137 O20         6.3060    3.5650    1.1200 o         1 MOL     -0.521572
    138 C47         6.3270    3.4600   -2.1200 c3        1 MOL     -0.060750
    139 C48         5.3530    2.7040   -3.1070 c3        1 MOL     -0.222739
    140 C49         5.7570    1.2270   -2.8960 c3        1 MOL      0.149126
    141 H60         7.6950    2.5030   -0.7760 h1        1 MOL      0.098408
    142 H61         5.8800    4.3440   -1.6680 hc        1 MOL      0.051139
    143 H62         7.1910    3.6880   -2.7450 hc        1 MOL      0.051139
    144 H63         4.3690    2.9460   -2.6880 hc        1 MOL      0.091858
    145 H64         5.5420    3.0600   -4.1250 hc        1 MOL      0.091858
    146 H65         4.8460    0.6340   -2.9570 h1        1 MOL     -0.034392
    147 H66         6.4050    0.7700   -3.6450 h1        1 MOL     -0.034392
    148 N13         4.8370    1.9350    0.6990 n         1 MOL     -0.084178
    149 C50         4.0830    1.9530    1.9730 c3        1 MOL     -0.103735
    150 C51         5.0060    1.3790    3.0870 c         1 MOL      0.383277
    151 O21         5.2510    1.9420    4.1780 o         1 MOL     -0.551049
    152 C52         2.7210    1.3740    1.8650 c3        1 MOL      0.202999
    153 C53         1.7100    2.3370    1.2930 c3        1 MOL     -0.123349
    154 C54         0.4360    1.5460    0.8770 c         1 MOL      0.650202
    155 O22         0.1510    0.4160    1.4320 o         1 MOL     -0.687588
    156 O23        -0.2390    1.9370   -0.1080 o         1 MOL     -0.687588
    157 H67         4.4660    1.2430    0.0550 hn        1 MOL      0.103077
    158 H68         3.9980    2.9860    2.3060 h1        1 MOL      0.076830
    159 H69         2.3590    0.9180    2.7790 hc        1 MOL     -0.029937
    160 H70         2.8080    0.4930    1.2240 hc        1 MOL     -0.029937
    161 H71         2.1910    2.8130    0.4410 hc        1 MOL      0.045903
    162 H72         1.4520    3.1550    1.9670 hc        1 MOL      0.045903
    163 N14         5.6070    0.2620    2.7650 n         1 MOL      0.047845
    164 C55         6.6010   -0.3100    3.6850 c3        1 MOL     -0.090187
    165 H73         6.4790   -1.3920    3.7230 h1        1 MOL      0.042293
    166 H74         7.6040   -0.0710    3.3310 h1        1 MOL      0.042293
    167 H75         6.4570    0.1070    4.6810 h1        1 MOL      0.042293
    168 H76         5.5350   -0.1260    1.8290 hn        1 MOL      0.043159
    169 Ca1        -1.9460    0.0900   -0.1850 Ca        1 MOL      1.732355
    170 O24        -2.0400    0.7520    2.7750 oh        1 MOL     -0.776081
    171 H77        -2.1000    0.8400    3.7190 ho        1 MOL      0.377833
    172 H78        -1.1070    0.6200    2.6010 ho        1 MOL      0.377833
    173 O25        -4.0160   -0.8750    1.4600 oh        1 MOL     -0.776081
    174 H79        -4.9310   -0.6100    1.4250 ho        1 MOL      0.377833
    175 H80        -3.7240   -0.6010    2.3360 ho        1 MOL      0.377833
@<TRIPOS>BOND
     1    1    2 1   
     2    1    4 1   
     3    1    5 1   
     4    1    6 1   
     5    2    3 2   
     6    2    7 1   
     7    7    8 1   
     8    7   15 1   
     9    8    9 1   
    10    8   11 1   
    11    8   16 1   
    12    9   10 2   
    13    9   19 1   
    14   11   12 1   
    15   11   17 1   
    16   11   18 1   
    17   12   13 1   
    18   12   14 1   
    19   19   20 1   
    20   19   24 1   
    21   20   21 1   
    22   20   23 1   
    23   20   25 1   
    24   21   22 2   
    25   21   29 1   
    26   23   26 1   
    27   23   27 1   
    28   23   28 1   
    29   29   30 1   
    30   29   37 1   
    31   30   31 1   
    32   30   33 1   
    33   30   38 1   
    34   31   32 2   
    35   31   41 1   
    36   33   34 1   
    37   33   39 1   
    38   33   40 1   
    39   34   35 1   
    40   34   36 1   
    41   41   42 1   
    42   41   45 1   
    43   42   43 1   
    44   42   46 1   
    45   42   47 1   
    46   43   44 2   
    47   43   48 1   
    48   48   49 1   
    49   48   56 1   
    50   49   50 1   
    51   49   52 1   
    52   49   57 1   
    53   50   51 2   
    54   50   62 1   
    55   52   53 1   
    56   52   58 1   
    57   52   59 1   
    58   53   54 1   
    59   53   55 2   
    60   54   60 1   
    61   54   61 1   
    62   62   63 1   
    63   62   66 1   
    64   63   64 1   
    65   63   67 1   
    66   63   68 1   
    67   64   65 2   
    68   64   69 1   
    69   69   70 1   
    70   69   76 1   
    71   70   71 1   
    72   70   73 1   
    73   70   77 1   
    74   71   72 2   
    75   71   83 1   
    76   73   74 1   
    77   73   75 1   
    78   73   78 1   
    79   74   80 1   
    80   74   81 1   
    81   74   82 1   
    82   75   79 1   
    83   83   84 1   
    84   83   91 1   
    85   84   85 1   
    86   84   87 1   
    87   84   92 1   
    88   85   86 2   
    89   85  102 1   
    90   87   88 1   
    91   87   89 1   
    92   87   93 1   
    93   88   90 1   
    94   88   94 1   
    95   88   95 1   
    96   89   96 1   
    97   89   97 1   
    98   89   98 1   
    99   90   99 1   
   100   90  100 1   
   101   90  101 1   
   102  102  103 1   
   103  102  110 1   
   104  103  104 1   
   105  103  106 1   
   106  103  111 1   
   107  104  105 2   
   108  104  114 1   
   109  106  107 1   
   110  106  112 1   
   111  106  113 1   
   112  107  108 1   
   113  107  109 1   
   114  114  115 1   
   115  114  125 1   
   116  115  116 1   
   117  115  118 1   
   118  115  126 1   
   119  116  117 2   
   120  116  134 1   
   121  118  119 1   
   122  118  127 1   
   123  118  128 1   
   124  119  120 ar  
   125  119  121 ar  
   126  120  122 ar  
   127  120  129 1   
   128  121  123 ar  
   129  121  130 1   
   130  122  124 ar  
   131  122  131 1   
   132  123  124 ar  
   133  123  132 1   
   134  124  133 1   
   135  134  135 1   
   136  134  140 1   
   137  135  136 1   
   138  135  138 1   
   139  135  141 1   
   140  136  137 2   
   141  136  148 1   
   142  138  139 1   
   143  138  142 1   
   144  138  143 1   
   145  139  140 1   
   146  139  144 1   
   147  139  145 1   
   148  140  146 1   
   149  140  147 1   
   150  148  149 1   
   151  148  157 1   
   152  149  150 1   
   153  149  152 1   
   154  149  158 1   
   155  150  151 2   
   156  150  163 1   
   157  152  153 1   
   158  152  159 1   
   159  152  160 1   
   160  153  154 1   
   161  153  161 1   
   162  153  162 1   
   163  154  155 1   
   164  154  156 1   
   165  163  164 1   
   166  163  168 1   
   167  164  165 1   
   168  164  166 1   
   169  164  167 1   
   170  170  171 1   
   171  170  172 1   
   172  173  174 1   
   173  173  175 1   
@<TRIPOS>SUBSTRUCTURE
     1 MOL         1 TEMP              0 ****  ****    0 ROOT
