@<TRIPOS>MOLECULE
MOL
  189   185     1     0     0
SMALL
resp


@<TRIPOS>ATOM
      1 C1          0.3130    2.6740    5.3050 c3        1 MOL     -0.352327
      2 C2         -0.2960    2.2440    3.9670 c         1 MOL      0.715014
      3 O1          0.3350    2.5710    2.9810 o         1 MOL     -0.587612
      4 H1          1.1810    3.3080    5.1220 hc        1 MOL      0.087427
      5 H2         -0.4280    3.2310    5.8800 hc        1 MOL      0.087427
      6 H3          0.6200    1.7920    5.8660 hc        1 MOL      0.087427
      7 N1         -1.4150    1.4940    3.9690 n         1 MOL     -0.638550
      8 C3         -2.1100    1.2860    2.7320 c3        1 MOL      0.134793
      9 C4         -2.7850    2.5630    2.2680 c         1 MOL      0.501409
     10 O2         -3.8750    2.9600    2.6580 o         1 MOL     -0.530209
     11 C5         -3.0790    0.0140    2.8420 c3        1 MOL     -0.387119
     12 C6         -3.8890   -0.2470    1.5820 c         1 MOL      0.824905
     13 O3         -3.4820    0.1040    0.4490 o         1 MOL     -0.690208
     14 O4         -5.0240   -0.8270    1.7040 o         1 MOL     -0.690208
     15 H4         -1.9550    1.1760    4.7610 hn        1 MOL      0.352591
     16 H5         -1.3430    1.0360    1.9970 h1        1 MOL      0.069801
     17 H6         -3.7560    0.1860    3.6760 hc        1 MOL      0.108055
     18 H7         -2.4140   -0.8460    2.9020 hc        1 MOL      0.108055
     19 N2         -2.1740    3.2530    1.2880 n         1 MOL     -0.229871
     20 C7         -2.4640    4.6410    1.0350 c3        1 MOL     -0.073719
     21 C8         -3.6000    4.8580    0.0090 c         1 MOL      0.475347
     22 O5         -4.4560    5.7160    0.1870 o         1 MOL     -0.564890
     23 C9         -1.1580    5.3340    0.5200 c3        1 MOL     -0.008558
     24 C10        -1.0880    6.8240    0.8720 c3        1 MOL      0.014552
     25 C11        -0.0030    7.6920    0.1810 c3        1 MOL     -0.288913
     26 C12        -0.0600    9.0270    0.8960 c3        1 MOL      0.273877
     27 N3          0.9120    9.9570    0.3780 n4        1 MOL     -0.470634
     28 H8         -1.3740    2.8010    0.8520 hn        1 MOL      0.220567
     29 H9         -2.7160    5.2060    1.9310 h1        1 MOL      0.080572
     30 H10        -1.2080    5.1880   -0.5560 hc        1 MOL      0.033324
     31 H11        -0.2500    4.8360    0.8650 hc        1 MOL      0.033324
     32 H12        -1.0840    6.9160    1.9580 hc        1 MOL      0.024700
     33 H13        -2.0500    7.2790    0.6630 hc        1 MOL      0.024700
     34 H14        -0.2690    7.7430   -0.8730 hc        1 MOL      0.095086
     35 H15         0.9660    7.2420    0.3500 hc        1 MOL      0.095086
     36 H16         0.0680    9.0030    1.9820 hx        1 MOL      0.040542
     37 H17        -1.0430    9.5050    0.8220 hx        1 MOL      0.040542
     38 H18         1.7250    9.8030    0.9560 hn        1 MOL      0.344602
     39 H19         1.0690    9.7060   -0.5930 hn        1 MOL      0.344602
     40 H20         0.6260   10.9130    0.5420 hn        1 MOL      0.344602
     41 N4         -3.7070    4.0000   -1.0120 n         1 MOL     -0.372498
     42 C13        -4.8440    3.9580   -1.9100 c3        1 MOL      0.186134
     43 C14        -5.9810    3.1220   -1.3560 c         1 MOL      0.408852
     44 O6         -7.0690    3.1510   -1.9080 o         1 MOL     -0.550160
     45 C15        -4.2350    3.5510   -3.2200 c3        1 MOL     -0.465387
     46 C16        -3.0710    2.5140   -3.2520 c         1 MOL      0.824855
     47 O7         -3.0890    1.5750   -2.4410 o         1 MOL     -0.709970
     48 O8         -2.0890    2.7300   -3.9690 o         1 MOL     -0.709970
     49 H21        -3.0310    3.2590   -1.1000 hn        1 MOL      0.279128
     50 H22        -5.4130    4.8930   -1.9800 h1        1 MOL      0.070013
     51 H23        -3.9730    4.3840   -3.8750 hc        1 MOL      0.103461
     52 H24        -5.0510    3.1240   -3.8030 hc        1 MOL      0.103461
     53 N5         -5.7360    2.2390   -0.3630 n         1 MOL      0.038181
     54 C17        -6.7710    1.7000    0.4110 c3        1 MOL     -0.228267
     55 C18        -7.2520    0.3800   -0.2000 c         1 MOL      0.661104
     56 O9         -8.4050    0.0770   -0.0420 o         1 MOL     -0.615626
     57 H25        -4.7740    2.0150   -0.1170 hn        1 MOL     -0.013220
     58 H26        -7.6530    2.3460    0.5130 h1        1 MOL      0.101485
     59 H27        -6.3110    1.5270    1.3760 h1        1 MOL      0.101485
     60 N6         -6.3990   -0.3640   -0.8890 n         1 MOL     -0.331644
     61 C19        -6.8260   -1.5890   -1.6390 c3        1 MOL      0.027759
     62 C20        -6.7810   -2.9320   -0.8490 c         1 MOL      0.376047
     63 O10        -7.1170   -4.0050   -1.3300 o         1 MOL     -0.532308
     64 C21        -5.9750   -1.7290   -2.9310 c3        1 MOL     -0.216557
     65 C22        -4.4240   -1.7710   -2.5690 c         1 MOL      0.715903
     66 O11        -3.9610   -2.2850   -1.5100 o         1 MOL     -0.702750
     67 O12        -3.6120   -1.1960   -3.3740 o         1 MOL     -0.702750
     68 H28        -5.4160   -0.2290   -0.7710 hn        1 MOL      0.111690
     69 H29        -7.8330   -1.5010   -2.0270 h1        1 MOL      0.114219
     70 H30        -6.2460   -0.8810   -3.5630 hc        1 MOL      0.071538
     71 H31        -6.3150   -2.6670   -3.3810 hc        1 MOL      0.071538
     72 N7         -6.3750   -2.8460    0.4110 n         1 MOL     -0.172935
     73 C23        -6.3300   -3.9980    1.3570 c3        1 MOL     -0.250802
     74 C24        -5.0460   -4.7850    1.3280 c         1 MOL      0.516365
     75 O13        -4.8770   -5.8780    1.8890 o         1 MOL     -0.575113
     76 H32        -5.9430   -1.9940    0.7340 hn        1 MOL      0.244561
     77 H33        -7.1460   -4.7000    1.1490 h1        1 MOL      0.126129
     78 H34        -6.4680   -3.6480    2.3760 h1        1 MOL      0.126129
     79 N8         -4.0050   -4.2210    0.7050 n         1 MOL     -0.026245
     80 C25        -2.6700   -4.7440    0.6300 c3        1 MOL     -0.463547
     81 C26        -1.5720   -3.6500    0.8110 c         1 MOL      0.781480
     82 O14        -1.7500   -2.5100    0.4390 o         1 MOL     -0.597117
     83 C27        -2.2810   -5.4300   -0.7190 c3        1 MOL      0.445622
     84 C28        -2.9970   -6.7730   -0.8390 c3        1 MOL     -0.417688
     85 O15        -2.6260   -4.5710   -1.7760 oh        1 MOL     -0.618675
     86 H35        -4.1440   -3.3090    0.3020 hn        1 MOL      0.117826
     87 H36        -2.5400   -5.3820    1.5030 h1        1 MOL      0.152813
     88 H37        -1.2260   -5.7060   -0.8420 h1        1 MOL      0.025380
     89 H38        -3.3050   -3.9710   -1.4800 ho        1 MOL      0.425307
     90 H39        -4.0860   -6.6330   -0.8850 hc        1 MOL      0.105624
     91 H40        -2.7070   -7.4840   -1.6150 hc        1 MOL      0.105624
     92 H41        -2.8970   -7.2560    0.1310 hc        1 MOL      0.105624
     93 N9         -0.4380   -4.0480    1.3600 n         1 MOL     -0.673107
     94 C29         0.8050   -3.2550    1.4070 c3        1 MOL      0.069485
     95 C30         1.8370   -3.7440    0.3380 c         1 MOL      0.497097
     96 O16         2.2380   -4.8680    0.1900 o         1 MOL     -0.531404
     97 C31         1.2130   -3.2760    2.9030 c3        1 MOL      0.055320
     98 C32         0.4060   -2.2270    3.7450 c3        1 MOL      0.021193
     99 C33         2.7090   -3.1970    3.1550 c3        1 MOL     -0.021778
    100 C34         0.4940   -2.5270    5.2370 c3        1 MOL     -0.168520
    101 H42        -0.3830   -4.9840    1.7430 hn        1 MOL      0.312012
    102 H43         0.4520   -2.2480    1.1670 h1        1 MOL      0.086319
    103 H44         1.0130   -4.2850    3.2690 hc        1 MOL      0.035028
    104 H45        -0.6630   -2.2470    3.5260 hc        1 MOL      0.026003
    105 H46         0.7730   -1.2320    3.4770 hc        1 MOL      0.026003
    106 H47         2.8780   -3.4410    4.2040 hc        1 MOL     -0.019300
    107 H48         3.2830   -3.8720    2.5310 hc        1 MOL     -0.019300
    108 H49         2.9700   -2.1510    2.9980 hc        1 MOL     -0.019300
    109 H50        -0.0180   -1.7930    5.8480 hc        1 MOL      0.042051
    110 H51         0.1170   -3.5290    5.4570 hc        1 MOL      0.042051
    111 H52         1.4980   -2.3800    5.6310 hc        1 MOL      0.042051
    112 N10         2.3240   -2.8630   -0.5480 n         1 MOL     -0.291964
    113 C35         3.6000   -3.0690   -1.3780 c3        1 MOL     -0.174176
    114 C36         4.7900   -2.9790   -0.4950 c         1 MOL      0.482421
    115 O17         4.7900   -2.4220    0.6330 o         1 MOL     -0.322244
    116 C37         3.7860   -2.0210   -2.4730 c3        1 MOL      0.305741
    117 C38         2.8270   -2.2910   -3.5990 c3        1 MOL     -0.318204
    118 O18         3.4610   -0.7360   -1.9350 oh        1 MOL     -0.643246
    119 H53         1.8120   -1.9960   -0.6240 hn        1 MOL      0.281749
    120 H54         3.5880   -4.0930   -1.7560 h1        1 MOL      0.113906
    121 H55         4.7990   -2.1080   -2.8660 h1        1 MOL      0.067448
    122 H56         2.5910   -0.4890   -2.2580 ho        1 MOL      0.456112
    123 H57         3.3320   -2.1610   -4.5590 hc        1 MOL      0.094101
    124 H58         2.5690   -3.3420   -3.7160 hc        1 MOL      0.094101
    125 H59         2.0130   -1.5540   -3.6350 hc        1 MOL      0.094101
    126 N11         6.0110   -3.2150   -1.0720 n         1 MOL     -0.334662
    127 C39         7.2770   -2.7610   -0.4670 c3        1 MOL     -0.401799
    128 C40         7.3890   -1.2360   -0.2340 c         1 MOL      0.527412
    129 O19         7.9660   -0.7060    0.6610 o         1 MOL     -0.478425
    130 C41         8.4890   -3.3250   -1.1400 c3        1 MOL      0.581783
    131 C42         8.5760   -4.8510   -1.2250 c3        1 MOL     -0.486646
    132 O20         8.5990   -2.7870   -2.3720 oh        1 MOL     -0.657505
    133 H60         6.0970   -3.6810   -1.9620 hn        1 MOL      0.281334
    134 H61         7.3540   -3.2420    0.5100 h1        1 MOL      0.156318
    135 H62         9.3990   -2.9580   -0.6510 h1        1 MOL     -0.031532
    136 H63         9.5180   -2.4940   -2.4720 ho        1 MOL      0.402805
    137 H64         8.5320   -5.2110   -0.2070 hc        1 MOL      0.130366
    138 H65         7.7690   -5.2230   -1.8690 hc        1 MOL      0.130366
    139 H66         9.5120   -5.1140   -1.7260 hc        1 MOL      0.130366
    140 N12         6.7320   -0.4930   -1.1540 n         1 MOL     -0.384292
    141 C43         6.6890    0.9980   -1.0900 c3        1 MOL      0.137920
    142 C44         5.9490    1.3780    0.2050 c         1 MOL      0.221258
    143 O21         6.3700    2.3290    0.9270 o         1 MOL     -0.530145
    144 C45         5.9110    1.5940   -2.2200 c3        1 MOL     -0.072061
    145 C46         6.6270    2.3770   -3.3320 c3        1 MOL      0.105031
    146 C47         6.9800    3.8870   -3.0490 c3        1 MOL     -0.147183
    147 C48         8.1380    3.9820   -2.0420 c3        1 MOL      0.121289
    148 N13         8.5430    5.3940   -1.8390 n4        1 MOL     -0.265855
    149 H67         6.1950   -0.9320   -1.8990 hn        1 MOL      0.231264
    150 H68         7.7340    1.3100   -1.1050 h1        1 MOL      0.049359
    151 H69         5.1130    2.2510   -1.8620 hc        1 MOL      0.038808
    152 H70         5.3900    0.8050   -2.7740 hc        1 MOL      0.038808
    153 H71         6.0400    2.3630   -4.2420 hc        1 MOL      0.005444
    154 H72         7.4970    1.7510   -3.5660 hc        1 MOL      0.005444
    155 H73         6.1380    4.5120   -2.7540 hc        1 MOL      0.049692
    156 H74         7.3220    4.2840   -4.0080 hc        1 MOL      0.049692
    157 H75         8.9960    3.4050   -2.4030 hx        1 MOL      0.052188
    158 H76         7.7650    3.5680   -1.1040 hx        1 MOL      0.052188
    159 H77         7.7140    5.9660   -1.7360 hn        1 MOL      0.296779
    160 H78         9.1740    5.5230   -1.0660 hn        1 MOL      0.296779
    161 H79         8.8620    5.8570   -2.6760 hn        1 MOL      0.296779
    162 N14         4.8300    0.7740    0.6220 n         1 MOL      0.091479
    163 C49         3.9900    1.1950    1.7670 c3        1 MOL     -0.047885
    164 C50         4.5010    0.5770    3.0560 c         1 MOL      0.390402
    165 O22         4.4720    1.2190    4.0920 o         1 MOL     -0.560664
    166 C51         2.5720    0.6130    1.4960 c3        1 MOL      0.153313
    167 C52         1.8370    1.3090    0.3120 c3        1 MOL     -0.325208
    168 C53         0.4910    0.7260   -0.1420 c         1 MOL      0.814739
    169 O23         0.4210   -0.4470   -0.4010 o         1 MOL     -0.756016
    170 O24        -0.5360    1.4440   -0.2740 o         1 MOL     -0.756016
    171 H80         4.4390    0.0140    0.1000 hn        1 MOL     -0.002952
    172 H81         3.9220    2.2770    1.8450 h1        1 MOL      0.083522
    173 H82         2.0010    0.7030    2.4130 hc        1 MOL      0.028046
    174 H83         2.5770   -0.4570    1.2690 hc        1 MOL      0.028046
    175 H84         2.4820    1.2630   -0.5640 hc        1 MOL      0.042173
    176 H85         1.7540    2.3530    0.6180 hc        1 MOL      0.042173
    177 N15         5.1780   -0.5280    2.9830 n         1 MOL      0.040712
    178 C54         6.1760   -1.0530    3.9080 c3        1 MOL     -0.336127
    179 H86         6.2550   -0.3920    4.7710 h1        1 MOL      0.115737
    180 H87         5.8790   -2.0480    4.2400 h1        1 MOL      0.115737
    181 H88         7.1420   -1.1110    3.4080 h1        1 MOL      0.115737
    182 H89         5.0730   -1.1090    2.1580 hn        1 MOL      0.078548
    183 Ca1        -1.9560   -0.4930   -1.4470 Ca        1 MOL      1.736869
    184 O25        -0.7370    0.4120   -3.6640 oh        1 MOL     -0.860728
    185 H90        -1.3940    0.9820   -4.0640 ho        1 MOL      0.391440
    186 H91         0.0780    0.6210   -4.1220 ho        1 MOL      0.391440
    187 O26        -0.8110   -2.6680   -2.5210 oh        1 MOL     -0.860728
    188 H92        -1.4390   -3.3870   -2.4230 ho        1 MOL      0.391440
    189 H93        -0.0690   -3.0500   -2.9820 ho        1 MOL      0.391440
@<TRIPOS>BOND
     1    1    2 1   
     2    1    4 1   
     3    1    5 1   
     4    1    6 1   
     5    2    3 2   
     6    2    7 1   
     7    7    8 1   
     8    7   15 1   
     9    8    9 1   
    10    8   11 1   
    11    8   16 1   
    12    9   10 2   
    13    9   19 1   
    14   11   12 1   
    15   11   17 1   
    16   11   18 1   
    17   12   13 1   
    18   12   14 1   
    19   19   20 1   
    20   19   28 1   
    21   20   21 1   
    22   20   23 1   
    23   20   29 1   
    24   21   22 2   
    25   21   41 1   
    26   23   24 1   
    27   23   30 1   
    28   23   31 1   
    29   24   25 1   
    30   24   32 1   
    31   24   33 1   
    32   25   26 1   
    33   25   34 1   
    34   25   35 1   
    35   26   27 1   
    36   26   36 1   
    37   26   37 1   
    38   27   38 1   
    39   27   39 1   
    40   27   40 1   
    41   41   42 1   
    42   41   49 1   
    43   42   43 1   
    44   42   45 1   
    45   42   50 1   
    46   43   44 2   
    47   43   53 1   
    48   45   46 1   
    49   45   51 1   
    50   45   52 1   
    51   46   47 1   
    52   46   48 1   
    53   53   54 1   
    54   53   57 1   
    55   54   55 1   
    56   54   58 1   
    57   54   59 1   
    58   55   56 2   
    59   55   60 1   
    60   60   61 1   
    61   60   68 1   
    62   61   62 1   
    63   61   64 1   
    64   61   69 1   
    65   62   63 2   
    66   62   72 1   
    67   64   65 1   
    68   64   70 1   
    69   64   71 1   
    70   65   66 1   
    71   65   67 1   
    72   72   73 1   
    73   72   76 1   
    74   73   74 1   
    75   73   77 1   
    76   73   78 1   
    77   74   75 2   
    78   74   79 1   
    79   79   80 1   
    80   79   86 1   
    81   80   81 1   
    82   80   83 1   
    83   80   87 1   
    84   81   82 2   
    85   81   93 1   
    86   83   84 1   
    87   83   85 1   
    88   83   88 1   
    89   84   90 1   
    90   84   91 1   
    91   84   92 1   
    92   85   89 1   
    93   93   94 1   
    94   93  101 1   
    95   94   95 1   
    96   94   97 1   
    97   94  102 1   
    98   95   96 2   
    99   95  112 1   
   100   97   98 1   
   101   97   99 1   
   102   97  103 1   
   103   98  100 1   
   104   98  104 1   
   105   98  105 1   
   106   99  106 1   
   107   99  107 1   
   108   99  108 1   
   109  100  109 1   
   110  100  110 1   
   111  100  111 1   
   112  112  113 1   
   113  112  119 1   
   114  113  114 1   
   115  113  116 1   
   116  113  120 1   
   117  114  115 2   
   118  114  126 1   
   119  116  117 1   
   120  116  118 1   
   121  116  121 1   
   122  117  123 1   
   123  117  124 1   
   124  117  125 1   
   125  118  122 1   
   126  126  127 1   
   127  126  133 1   
   128  127  128 1   
   129  127  130 1   
   130  127  134 1   
   131  128  129 2   
   132  128  140 1   
   133  130  131 1   
   134  130  132 1   
   135  130  135 1   
   136  131  137 1   
   137  131  138 1   
   138  131  139 1   
   139  132  136 1   
   140  140  141 1   
   141  140  149 1   
   142  141  142 1   
   143  141  144 1   
   144  141  150 1   
   145  142  143 2   
   146  142  162 1   
   147  144  145 1   
   148  144  151 1   
   149  144  152 1   
   150  145  146 1   
   151  145  153 1   
   152  145  154 1   
   153  146  147 1   
   154  146  155 1   
   155  146  156 1   
   156  147  148 1   
   157  147  157 1   
   158  147  158 1   
   159  148  159 1   
   160  148  160 1   
   161  148  161 1   
   162  162  163 1   
   163  162  171 1   
   164  163  164 1   
   165  163  166 1   
   166  163  172 1   
   167  164  165 2   
   168  164  177 1   
   169  166  167 1   
   170  166  173 1   
   171  166  174 1   
   172  167  168 1   
   173  167  175 1   
   174  167  176 1   
   175  168  169 1   
   176  168  170 1   
   177  177  178 1   
   178  177  182 1   
   179  178  179 1   
   180  178  180 1   
   181  178  181 1   
   182  184  185 1   
   183  184  186 1   
   184  187  188 1   
   185  187  189 1   
@<TRIPOS>SUBSTRUCTURE
     1 MOL         1 TEMP              0 ****  ****    0 ROOT
