@<TRIPOS>MOLECULE
MOL
  189   185     1     0     0
SMALL
resp


@<TRIPOS>ATOM
      1 C1          1.5640   -3.3310    6.0980 c3        1 MOL     -0.446562
      2 C2          1.4500   -3.1580    4.5380 c         1 MOL      0.725429
      3 O1          0.6570   -2.2720    4.0760 o         1 MOL     -0.604242
      4 H1          1.9020   -4.3430    6.3270 hc        1 MOL      0.119082
      5 H2          2.2810   -2.6110    6.4930 hc        1 MOL      0.119082
      6 H3          0.5900   -3.1620    6.5560 hc        1 MOL      0.119082
      7 N1          2.2680   -3.8720    3.7000 n         1 MOL     -0.642941
      8 C3          2.7690   -3.5070    2.3640 c3        1 MOL      0.254989
      9 C4          2.9220   -4.7670    1.5600 c         1 MOL      0.571609
     10 O2          3.4470   -5.8150    2.0900 o         1 MOL     -0.577924
     11 C5          4.1300   -2.8190    2.6040 c3        1 MOL     -0.154012
     12 C6          4.7800   -2.3340    1.3300 c         1 MOL      0.662502
     13 O3          4.0130   -1.8970    0.4310 o         1 MOL     -0.655559
     14 O4          6.0200   -2.4070    1.1700 o         1 MOL     -0.655559
     15 H4          2.7890   -4.5650    4.2300 hn        1 MOL      0.310611
     16 H5          2.1700   -2.8570    1.7200 h1        1 MOL      0.010811
     17 H6          4.8560   -3.5230    2.9860 hc        1 MOL     -0.005177
     18 H7          4.0110   -1.9330    3.2170 hc        1 MOL     -0.005177
     19 N2          2.5310   -4.7420    0.2550 n         1 MOL     -0.258735
     20 C7          2.7300   -5.7780   -0.7750 c3        1 MOL     -0.325375
     21 C8          3.1550   -5.2270   -2.1550 c         1 MOL      0.564675
     22 O5          3.1530   -5.9470   -3.2220 o         1 MOL     -0.586344
     23 C9          1.5540   -6.7730   -0.9070 c3        1 MOL      0.324142
     24 C10         0.1590   -6.1600   -0.8210 c3        1 MOL      0.111888
     25 C11         1.5950   -7.8170    0.2260 c3        1 MOL     -0.340313
     26 C12        -0.0410   -5.1830   -1.9700 c3        1 MOL     -0.349510
     27 H8          2.0520   -3.9130   -0.0880 hn        1 MOL      0.129347
     28 H9          3.5750   -6.3940   -0.4830 h1        1 MOL      0.154799
     29 H10         1.6490   -7.2640   -1.8700 hc        1 MOL     -0.013897
     30 H11        -0.1810   -5.7970    0.1450 hc        1 MOL     -0.027672
     31 H12        -0.4670   -7.0140   -1.1020 hc        1 MOL     -0.027672
     32 H13         2.6020   -8.2350    0.2200 hc        1 MOL      0.059445
     33 H14         1.3520   -7.4250    1.2150 hc        1 MOL      0.059445
     34 H15         0.9620   -8.6670   -0.0200 hc        1 MOL      0.059445
     35 H16        -0.0730   -5.6260   -2.9630 hc        1 MOL      0.093981
     36 H17        -0.9670   -4.6610   -1.7290 hc        1 MOL      0.093981
     37 H18         0.7060   -4.3920   -2.0240 hc        1 MOL      0.093981
     38 N3          3.5930   -3.9890   -2.2220 n         1 MOL     -0.474934
     39 C13         4.0050   -3.3690   -3.4900 c3        1 MOL      0.036151
     40 C14         5.2510   -2.4790   -3.3450 c         1 MOL      0.416218
     41 O6          5.7970   -2.2050   -4.4040 o         1 MOL     -0.530574
     42 C15         2.9410   -2.4750   -4.1680 c3        1 MOL     -0.226166
     43 C16         2.4010   -1.3600   -3.2680 c         1 MOL      0.834915
     44 O7          2.8910   -1.1690   -2.1570 o         1 MOL     -0.745436
     45 O8          1.5060   -0.6340   -3.7200 o         1 MOL     -0.745436
     46 H19         3.4150   -3.4330   -1.4010 hn        1 MOL      0.382151
     47 H20         4.3430   -4.1900   -4.1260 h1        1 MOL      0.119851
     48 H21         2.0320   -3.0440   -4.3830 hc        1 MOL      0.064864
     49 H22         3.3290   -2.1070   -5.1140 hc        1 MOL      0.064864
     50 N4          5.8990   -2.2260   -2.1600 n         1 MOL     -0.256639
     51 C17         7.1550   -1.5600   -1.9510 c3        1 MOL     -0.110434
     52 C18         7.1370   -0.0840   -2.2460 c         1 MOL      0.446967
     53 O9          8.1960    0.4210   -2.5990 o         1 MOL     -0.591927
     54 H23         5.4230   -2.4480   -1.2920 hn        1 MOL      0.166476
     55 H24         7.9120   -1.9630   -2.6170 h1        1 MOL      0.091443
     56 H25         7.5060   -1.7420   -0.9370 h1        1 MOL      0.091443
     57 N5          6.0130    0.6820   -2.1930 n         1 MOL     -0.115070
     58 C19         5.9890    2.1140   -2.6510 c3        1 MOL     -0.109081
     59 C20         6.3830    3.0740   -1.5180 c         1 MOL      0.414177
     60 O10         6.7730    4.2410   -1.7900 o         1 MOL     -0.554822
     61 C21         4.6970    2.5160   -3.2860 c3        1 MOL     -0.229209
     62 C22         3.4920    2.3250   -2.3510 c         1 MOL      0.758866
     63 O11         3.6410    1.7680   -1.2280 o         1 MOL     -0.704207
     64 O12         2.3610    2.7690   -2.6370 o         1 MOL     -0.704207
     65 H26         5.1430    0.2920   -1.8700 hn        1 MOL      0.183805
     66 H27         6.8130    2.1570   -3.3670 h1        1 MOL      0.140964
     67 H28         4.4560    1.9770   -4.2000 hc        1 MOL      0.079232
     68 H29         4.6970    3.5620   -3.5910 hc        1 MOL      0.079232
     69 N6          6.3990    2.6940   -0.2570 n         1 MOL     -0.100289
     70 C23         6.7520    3.4530    0.8940 c3        1 MOL     -0.214154
     71 C24         5.6060    4.3580    1.3320 c         1 MOL      0.585625
     72 O13         5.8260    5.1930    2.1860 o         1 MOL     -0.584920
     73 H30         5.9000    1.8420   -0.0690 hn        1 MOL      0.064789
     74 H31         7.6540    4.0390    0.7980 h1        1 MOL      0.101026
     75 H32         6.8590    2.7600    1.7360 h1        1 MOL      0.101026
     76 N7          4.3370    4.0770    0.9200 n         1 MOL     -0.353204
     77 C25         3.0810    4.5130    1.6220 c3        1 MOL     -0.096586
     78 C26         2.0470    3.3560    1.7020 c         1 MOL      0.654447
     79 O14         2.0120    2.4160    0.8990 o         1 MOL     -0.585707
     80 C27         2.4220    5.6670    0.9420 c3        1 MOL     -0.155401
     81 C28         3.1900    6.9160    0.7640 c3        1 MOL     -0.055265
     82 C29         2.3200    8.0470    0.2190 c         1 MOL      0.544093
     83 N8          1.8080    8.0120   -0.9920 n         1 MOL     -0.740980
     84 O15         2.1150    8.9890    0.9940 o         1 MOL     -0.582951
     85 H33         4.2950    3.3800    0.1870 hn        1 MOL      0.272459
     86 H34         3.2790    4.7930    2.6580 h1        1 MOL      0.086029
     87 H35         1.4540    5.8590    1.4080 hc        1 MOL      0.095368
     88 H36         2.0710    5.3850   -0.0460 hc        1 MOL      0.095368
     89 H37         4.0400    6.7510    0.0870 hc        1 MOL      0.061474
     90 H38         3.5990    7.2300    1.7230 hc        1 MOL      0.061474
     91 H39         1.9160    7.2570   -1.6550 hn        1 MOL      0.358380
     92 H40         1.3440    8.8850   -1.1690 hn        1 MOL      0.358380
     93 N9          1.1910    3.3670    2.7120 n         1 MOL     -0.601230
     94 C30         0.0240    2.4420    2.8710 c3        1 MOL      0.256060
     95 C31        -1.1440    2.9780    2.0260 c         1 MOL      0.426975
     96 O16        -1.5310    4.1060    2.2490 o         1 MOL     -0.610177
     97 C32        -0.4430    2.0500    4.2920 c3        1 MOL      0.342510
     98 C33        -1.4400    0.8120    4.2490 c3        1 MOL     -0.387372
     99 C34         0.6520    1.7750    5.3240 c3        1 MOL     -0.387372
    100 H41         1.1600    4.1870    3.2960 hn        1 MOL      0.291365
    101 H42         0.2940    1.4480    2.5190 h1        1 MOL     -0.010536
    102 H43        -1.0200    2.9430    4.5570 hc        1 MOL     -0.085945
    103 H44        -0.8510   -0.0290    3.8750 hc        1 MOL      0.083387
    104 H45        -1.7850    0.6450    5.2720 hc        1 MOL      0.083387
    105 H46        -2.2790    1.0790    3.6030 hc        1 MOL      0.083387
    106 H47         1.0740    0.8060    5.0780 hc        1 MOL      0.083387
    107 H48         1.4360    2.5130    5.1500 hc        1 MOL      0.083387
    108 H49         0.1890    1.7490    6.3190 hc        1 MOL      0.083387
    109 N10        -1.7510    2.1780    1.2170 n         1 MOL     -0.170143
    110 C35        -2.9410    2.6760    0.4810 c3        1 MOL      0.381023
    111 C36        -4.2760    2.1430    0.9340 c         1 MOL      0.298254
    112 O17        -4.3230    1.1630    1.6550 o         1 MOL     -0.472209
    113 C37        -2.6760    2.4730   -1.0170 c3        1 MOL     -0.108607
    114 C38        -3.0680    1.1050   -1.5520 c         1 MOL      0.783613
    115 N11        -2.1480    0.2060   -1.6960 n         1 MOL     -0.842128
    116 O18        -4.1830    0.7640   -1.7700 o         1 MOL     -0.604331
    117 H50        -1.4150    1.2260    1.1800 hn        1 MOL      0.052094
    118 H51        -3.0600    3.7610    0.5460 h1        1 MOL     -0.017549
    119 H52        -1.6290    2.7290   -1.1970 hc        1 MOL     -0.006218
    120 H53        -3.2950    3.1540   -1.6110 hc        1 MOL     -0.006218
    121 H54        -1.1840    0.4760   -1.5300 hn        1 MOL      0.387466
    122 H55        -2.3330   -0.7320   -2.0220 hn        1 MOL      0.387466
    123 N12        -5.4370    2.7110    0.5860 n         1 MOL     -0.297532
    124 C39        -6.8200    2.2980    0.9230 c3        1 MOL      0.050606
    125 C40        -7.1380    0.7680    0.7730 c         1 MOL      0.401516
    126 O19        -8.0560    0.3440    1.4240 o         1 MOL     -0.582481
    127 C41        -7.7940    3.1670    0.1540 c3        1 MOL     -0.116929
    128 C42        -7.7420    2.8930   -1.3430 ca        1 MOL      0.048410
    129 C43        -8.6430    1.9960   -1.9170 ca        1 MOL     -0.216086
    130 C44        -6.7560    3.5140   -2.1370 ca        1 MOL     -0.216086
    131 C45        -8.5970    1.8090   -3.3440 ca        1 MOL     -0.270827
    132 C46        -6.6490    3.2600   -3.5060 ca        1 MOL     -0.270827
    133 C47        -7.5830    2.4120   -4.1690 ca        1 MOL      0.311553
    134 O20        -7.4840    2.2490   -5.5100 oh        1 MOL     -0.442321
    135 H56        -5.4320    3.5810    0.0730 hn        1 MOL      0.194717
    136 H57        -6.9750    2.3530    1.9970 h1        1 MOL      0.058587
    137 H58        -7.5670    4.1950    0.4240 hc        1 MOL      0.048710
    138 H59        -8.8300    3.0490    0.4720 hc        1 MOL      0.048710
    139 H60        -9.4720    1.6170   -1.3540 ha        1 MOL      0.156691
    140 H61        -6.1790    4.3350   -1.7170 ha        1 MOL      0.156691
    141 H62        -9.3380    1.1210   -3.7150 ha        1 MOL      0.156441
    142 H63        -5.9690    3.8050   -4.1520 ha        1 MOL      0.156441
    143 H64        -8.3540    1.9320   -5.7760 ho        1 MOL      0.357735
    144 N13        -6.5200   -0.1180   -0.0260 n         1 MOL      0.102526
    145 C48        -6.7520   -1.5480   -0.0550 c3        1 MOL     -0.361293
    146 C49        -5.8820   -2.3180    0.8600 c         1 MOL      0.492301
    147 O21        -6.1170   -3.4760    1.0770 o         1 MOL     -0.564513
    148 C50        -6.6750   -2.1050   -1.4620 c3        1 MOL      0.034337
    149 C51        -7.3820   -1.2600   -2.4750 c3        1 MOL     -0.336760
    150 C52        -7.6200   -1.9990   -3.8320 c         1 MOL      0.677354
    151 O22        -6.6600   -1.8800   -4.6650 o         1 MOL     -0.725310
    152 O23        -8.5980   -2.8240   -3.9890 o         1 MOL     -0.725310
    153 H65        -5.9160    0.2660   -0.7380 hn        1 MOL      0.235679
    154 H66        -7.7700   -1.7450    0.2810 h1        1 MOL      0.142741
    155 H67        -7.1080   -3.1020   -1.4830 hc        1 MOL      0.076280
    156 H68        -5.6340   -2.1920   -1.7880 hc        1 MOL      0.076280
    157 H69        -6.8910   -0.2870   -2.5820 hc        1 MOL      0.080339
    158 H70        -8.3830   -0.9970   -2.1040 hc        1 MOL      0.080339
    159 N14        -4.7440   -1.7690    1.3460 n         1 MOL     -0.188217
    160 C53        -3.8010   -2.4040    2.2940 c3        1 MOL     -0.423391
    161 C54        -4.2130   -2.4520    3.7770 c         1 MOL      0.518350
    162 O24        -3.6060   -3.0420    4.6670 o         1 MOL     -0.532256
    163 C55        -2.4130   -1.8900    2.0320 c3        1 MOL      0.228105
    164 C56        -1.7270   -2.2600    0.7320 c3        1 MOL      0.078937
    165 C57        -0.4250   -1.4800    0.5680 c         1 MOL      0.651554
    166 O25        -0.2830   -0.2660    0.7920 o         1 MOL     -0.740099
    167 O26         0.5750   -2.0230   -0.0290 o         1 MOL     -0.740099
    168 H71        -4.5650   -0.7920    1.1670 hn        1 MOL      0.032977
    169 H72        -3.8330   -3.4740    2.0760 h1        1 MOL      0.188459
    170 H73        -1.8470   -2.3890    2.8190 hc        1 MOL      0.029520
    171 H74        -2.4280   -0.8170    2.1830 hc        1 MOL      0.029520
    172 H75        -2.3140   -2.2000   -0.1760 hc        1 MOL     -0.008150
    173 H76        -1.4760   -3.3240    0.8120 hc        1 MOL     -0.008150
    174 N15        -5.4450   -1.9950    4.0220 n         1 MOL     -0.205267
    175 C58        -5.9810   -1.9990    5.3590 c3        1 MOL     -0.104879
    176 H77        -5.5300   -2.8120    5.9280 h1        1 MOL      0.049672
    177 H78        -5.7560   -1.0500    5.8440 h1        1 MOL      0.049672
    178 H79        -7.0610   -2.1400    5.3170 h1        1 MOL      0.049672
    179 H80        -6.0190   -1.4780    3.3650 hn        1 MOL      0.270140
    180 Ca1         2.2580    0.0170    0.0720 Ca        1 MOL      1.763396
    181 O27         4.8190    0.6780    1.3640 oh        1 MOL     -0.834214
    182 H81         5.6820    0.2880    1.2220 ho        1 MOL      0.415291
    183 H82         4.8170    0.9120    2.2890 ho        1 MOL      0.415291
    184 O28         2.1680   -0.2350    2.7570 oh        1 MOL     -0.834214
    185 H83         2.6660    0.1420    3.4790 ho        1 MOL      0.415291
    186 H84         1.5360   -0.8240    3.1710 ho        1 MOL      0.415291
    187 O29         0.6080    1.0190   -1.8630 oh        1 MOL     -0.834214
    188 H85         0.7090    0.3510   -2.5500 ho        1 MOL      0.415291
    189 H86         1.2220    1.7010   -2.1060 ho        1 MOL      0.415291
@<TRIPOS>BOND
     1    1    2 1   
     2    1    4 1   
     3    1    5 1   
     4    1    6 1   
     5    2    3 2   
     6    2    7 1   
     7    7    8 1   
     8    7   15 1   
     9    8    9 1   
    10    8   11 1   
    11    8   16 1   
    12    9   10 2   
    13    9   19 1   
    14   11   12 1   
    15   11   17 1   
    16   11   18 1   
    17   12   13 1   
    18   12   14 1   
    19   19   20 1   
    20   19   27 1   
    21   20   21 1   
    22   20   23 1   
    23   20   28 1   
    24   21   22 2   
    25   21   38 1   
    26   23   24 1   
    27   23   25 1   
    28   23   29 1   
    29   24   26 1   
    30   24   30 1   
    31   24   31 1   
    32   25   32 1   
    33   25   33 1   
    34   25   34 1   
    35   26   35 1   
    36   26   36 1   
    37   26   37 1   
    38   38   39 1   
    39   38   46 1   
    40   39   40 1   
    41   39   42 1   
    42   39   47 1   
    43   40   41 2   
    44   40   50 1   
    45   42   43 1   
    46   42   48 1   
    47   42   49 1   
    48   43   44 1   
    49   43   45 1   
    50   50   51 1   
    51   50   54 1   
    52   51   52 1   
    53   51   55 1   
    54   51   56 1   
    55   52   53 2   
    56   52   57 1   
    57   57   58 1   
    58   57   65 1   
    59   58   59 1   
    60   58   61 1   
    61   58   66 1   
    62   59   60 2   
    63   59   69 1   
    64   61   62 1   
    65   61   67 1   
    66   61   68 1   
    67   62   63 1   
    68   62   64 1   
    69   69   70 1   
    70   69   73 1   
    71   70   71 1   
    72   70   74 1   
    73   70   75 1   
    74   71   72 2   
    75   71   76 1   
    76   76   77 1   
    77   76   85 1   
    78   77   78 1   
    79   77   80 1   
    80   77   86 1   
    81   78   79 2   
    82   78   93 1   
    83   80   81 1   
    84   80   87 1   
    85   80   88 1   
    86   81   82 1   
    87   81   89 1   
    88   81   90 1   
    89   82   83 1   
    90   82   84 2   
    91   83   91 1   
    92   83   92 1   
    93   93   94 1   
    94   93  100 1   
    95   94   95 1   
    96   94   97 1   
    97   94  101 1   
    98   95   96 2   
    99   95  109 1   
   100   97   98 1   
   101   97   99 1   
   102   97  102 1   
   103   98  103 1   
   104   98  104 1   
   105   98  105 1   
   106   99  106 1   
   107   99  107 1   
   108   99  108 1   
   109  109  110 1   
   110  109  117 1   
   111  110  111 1   
   112  110  113 1   
   113  110  118 1   
   114  111  112 2   
   115  111  123 1   
   116  113  114 1   
   117  113  119 1   
   118  113  120 1   
   119  114  115 1   
   120  114  116 2   
   121  115  121 1   
   122  115  122 1   
   123  123  124 1   
   124  123  135 1   
   125  124  125 1   
   126  124  127 1   
   127  124  136 1   
   128  125  126 2   
   129  125  144 1   
   130  127  128 1   
   131  127  137 1   
   132  127  138 1   
   133  128  129 ar  
   134  128  130 ar  
   135  129  131 ar  
   136  129  139 1   
   137  130  132 ar  
   138  130  140 1   
   139  131  133 ar  
   140  131  141 1   
   141  132  133 ar  
   142  132  142 1   
   143  133  134 1   
   144  134  143 1   
   145  144  145 1   
   146  144  153 1   
   147  145  146 1   
   148  145  148 1   
   149  145  154 1   
   150  146  147 2   
   151  146  159 1   
   152  148  149 1   
   153  148  155 1   
   154  148  156 1   
   155  149  150 1   
   156  149  157 1   
   157  149  158 1   
   158  150  151 1   
   159  150  152 1   
   160  159  160 1   
   161  159  168 1   
   162  160  161 1   
   163  160  163 1   
   164  160  169 1   
   165  161  162 2   
   166  161  174 1   
   167  163  164 1   
   168  163  170 1   
   169  163  171 1   
   170  164  165 1   
   171  164  172 1   
   172  164  173 1   
   173  165  166 1   
   174  165  167 1   
   175  174  175 1   
   176  174  179 1   
   177  175  176 1   
   178  175  177 1   
   179  175  178 1   
   180  181  182 1   
   181  181  183 1   
   182  184  185 1   
   183  184  186 1   
   184  187  188 1   
   185  187  189 1   
@<TRIPOS>SUBSTRUCTURE
     1 MOL         1 TEMP              0 ****  ****    0 ROOT
