@<TRIPOS>MOLECULE
MOL
  183   181     1     0     0
SMALL
resp


@<TRIPOS>ATOM
      1 C1         -0.2000    2.5760    6.0180 c3        1 MOL     -0.353041
      2 C2         -0.7520    2.6040    4.5680 c         1 MOL      0.866919
      3 O1         -0.2140    3.2930    3.7200 o         1 MOL     -0.673682
      4 H1         -0.9300    2.1040    6.6740 hc        1 MOL      0.074894
      5 H2          0.7310    2.0100    6.0420 hc        1 MOL      0.074894
      6 H3         -0.0140    3.5950    6.3560 hc        1 MOL      0.074894
      7 N1         -1.8160    1.8790    4.3030 n         1 MOL     -0.731032
      8 C3         -2.3750    1.6240    2.9530 c3        1 MOL      0.304996
      9 C4         -2.8040    3.0280    2.3970 c         1 MOL      0.461983
     10 O2         -3.6370    3.6880    2.9780 o         1 MOL     -0.578503
     11 C5         -3.6400    0.6320    3.0640 c3        1 MOL     -0.220816
     12 C6         -4.3340    0.3380    1.7730 c         1 MOL      0.757280
     13 O3         -5.4430   -0.1700    1.7620 o         1 MOL     -0.685464
     14 O4         -3.7290    0.6850    0.7440 o         1 MOL     -0.685464
     15 H4         -2.3300    1.4310    5.0400 hn        1 MOL      0.331706
     16 H5         -1.6030    1.2920    2.2610 h1        1 MOL      0.001464
     17 H6         -4.3410    0.9580    3.8400 hc        1 MOL      0.030882
     18 H7         -3.2470   -0.3360    3.3800 hc        1 MOL      0.030882
     19 N2         -2.3510    3.4880    1.1850 n         1 MOL     -0.135667
     20 C7         -2.5520    4.8130    0.6570 c3        1 MOL     -0.041144
     21 C8         -3.6760    4.8330   -0.4040 c         1 MOL      0.435822
     22 O5         -4.3480    5.8890   -0.5720 o         1 MOL     -0.579364
     23 C9         -1.2320    5.3610    0.1300 c3        1 MOL      0.129411
     24 C10        -0.1670    5.4070    1.2180 c3        1 MOL      0.259054
     25 C11        -1.3320    6.8230   -0.4400 c3        1 MOL     -0.419633
     26 C12         1.1500    6.2280    0.9040 c3        1 MOL     -0.373441
     27 H8         -1.6800    2.9050    0.6910 hn        1 MOL      0.092764
     28 H9         -2.8780    5.4890    1.4570 h1        1 MOL      0.060386
     29 H10        -0.8250    4.6430   -0.5790 hc        1 MOL      0.017537
     30 H11         0.2210    4.4280    1.4640 hc        1 MOL     -0.025789
     31 H12        -0.5950    5.9100    2.0900 hc        1 MOL     -0.025789
     32 H13        -0.3760    7.0660   -0.8910 hc        1 MOL      0.093313
     33 H14        -2.1290    7.0050   -1.1690 hc        1 MOL      0.093313
     34 H15        -1.5860    7.5560    0.3260 hc        1 MOL      0.093313
     35 H16         1.0750    7.3150    0.9280 hc        1 MOL      0.072792
     36 H17         1.8720    5.9280    1.6550 hc        1 MOL      0.072792
     37 H18         1.4920    5.9830   -0.1090 hc        1 MOL      0.072792
     38 N3         -3.7650    3.8640   -1.3130 n         1 MOL     -0.336114
     39 C13        -4.7840    3.7510   -2.4180 c3        1 MOL      0.198833
     40 C14        -5.9950    2.9190   -2.0230 c         1 MOL      0.439249
     41 O6         -7.0710    3.0030   -2.6030 o         1 MOL     -0.574565
     42 C15        -4.2810    3.0260   -3.7070 c3        1 MOL     -0.249532
     43 C16        -3.5020    1.7470   -3.4670 c         1 MOL      0.751218
     44 O7         -2.8660    1.2210   -4.4370 o         1 MOL     -0.692743
     45 O8         -3.5230    1.0810   -2.3700 o         1 MOL     -0.692743
     46 H19        -3.1600    3.0630   -1.2180 hn        1 MOL      0.235083
     47 H20        -5.2680    4.6650   -2.7600 h1        1 MOL      0.035873
     48 H21        -3.5460    3.6870   -4.1510 hc        1 MOL      0.060635
     49 H22        -5.0630    2.8900   -4.4520 hc        1 MOL      0.060635
     50 N4         -5.8730    2.1830   -0.8900 n         1 MOL     -0.255176
     51 C17        -7.0480    1.8630   -0.0430 c3        1 MOL     -0.079739
     52 C18        -7.5380    0.4410   -0.2360 c         1 MOL      0.500406
     53 O9         -8.7550    0.2200   -0.0040 o         1 MOL     -0.617053
     54 H23        -4.9500    1.9600   -0.5750 hn        1 MOL      0.143730
     55 H24        -7.9150    2.5060   -0.1740 h1        1 MOL      0.094717
     56 H25        -6.9380    2.1010    1.0130 h1        1 MOL      0.094717
     57 N5         -6.7160   -0.4740   -0.8270 n         1 MOL     -0.186223
     58 C19        -7.1190   -1.8450   -1.2160 c3        1 MOL     -0.007810
     59 C20        -7.2970   -2.8500   -0.0700 c         1 MOL      0.435908
     60 O10        -7.6830   -3.9900   -0.2190 o         1 MOL     -0.535303
     61 C21        -6.2330   -2.3950   -2.3680 c3        1 MOL     -0.199432
     62 C22        -4.7300   -2.2740   -2.0460 c         1 MOL      0.724778
     63 O11        -3.8570   -2.2350   -2.9300 o         1 MOL     -0.678893
     64 O12        -4.4130   -2.2630   -0.8360 o         1 MOL     -0.678893
     65 H26        -5.7270   -0.2740   -0.8100 hn        1 MOL      0.094496
     66 H27        -8.1460   -1.6090   -1.4920 h1        1 MOL      0.082783
     67 H28        -6.4540   -1.7500   -3.2150 hc        1 MOL      0.047838
     68 H29        -6.4660   -3.4190   -2.6350 hc        1 MOL      0.047838
     69 N6         -6.9340   -2.4280    1.2040 n         1 MOL     -0.277751
     70 C23        -6.7270   -3.3710    2.3300 c3        1 MOL     -0.133756
     71 C24        -5.4040   -4.1890    2.3150 c         1 MOL      0.530842
     72 O13        -5.3980   -5.2490    2.9510 o         1 MOL     -0.592706
     73 H30        -6.7740   -1.4480    1.4050 hn        1 MOL      0.260803
     74 H31        -7.5750   -4.0520    2.3210 h1        1 MOL      0.068730
     75 H32        -6.8370   -2.8510    3.2870 h1        1 MOL      0.068730
     76 N7         -4.3710   -3.7700    1.5550 n         1 MOL     -0.144684
     77 C25        -2.9640   -4.2470    1.6480 c3        1 MOL     -0.202362
     78 C26        -1.8850   -3.1580    1.6160 c         1 MOL      0.783871
     79 O14        -2.1030   -1.9850    1.2740 o         1 MOL     -0.679178
     80 C27        -2.7310   -5.5070    0.7590 c3        1 MOL      0.261769
     81 C28        -2.9530   -5.2090   -0.6760 c3        1 MOL     -0.345993
     82 C29        -1.8350   -4.4250   -1.3870 c         1 MOL      0.690764
     83 N8         -0.9200   -5.1080   -2.1060 n         1 MOL     -0.716822
     84 O15        -1.6870   -3.1990   -1.2850 o         1 MOL     -0.591756
     85 H33        -4.3910   -2.9470    0.9700 hn        1 MOL      0.186733
     86 H34        -2.9300   -4.6990    2.6390 h1        1 MOL      0.049043
     87 H35        -3.3130   -6.3710    1.0810 hc        1 MOL     -0.054033
     88 H36        -1.7060   -5.8530    0.8190 hc        1 MOL     -0.054033
     89 H37        -3.9260   -4.7540   -0.8760 hc        1 MOL      0.093740
     90 H38        -3.0320   -6.1370   -1.2530 hc        1 MOL      0.093740
     91 H39        -1.1580   -6.0580   -2.2890 hn        1 MOL      0.314630
     92 H40        -0.1580   -4.5610   -2.4970 hn        1 MOL      0.314630
     93 N9         -0.7090   -3.5840    2.0720 n         1 MOL     -0.646932
     94 C30         0.4540   -2.6460    2.0570 c3        1 MOL      0.160203
     95 C31         1.4960   -3.1160    1.0660 c         1 MOL      0.477218
     96 O16         1.9800   -4.2610    1.2060 o         1 MOL     -0.616249
     97 C32         1.0500   -2.5280    3.4890 c3        1 MOL      0.299184
     98 C33         2.4170   -1.8040    3.6180 c3        1 MOL     -0.361755
     99 C34         0.1130   -1.7690    4.3640 c3        1 MOL     -0.361755
    100 H41        -0.5340   -4.5660    2.2250 hn        1 MOL      0.337783
    101 H42         0.0850   -1.6440    1.8100 h1        1 MOL      0.103613
    102 H43         1.1360   -3.5740    3.7970 hc        1 MOL     -0.055747
    103 H44         2.3240   -0.8220    3.1570 hc        1 MOL      0.074045
    104 H45         2.7510   -1.6550    4.6420 hc        1 MOL      0.074045
    105 H46         3.1460   -2.2830    2.9640 hc        1 MOL      0.074045
    106 H47        -0.0010   -0.7390    4.0370 hc        1 MOL      0.074045
    107 H48        -0.8030   -2.3320    4.5860 hc        1 MOL      0.074045
    108 H49         0.5690   -1.7660    5.3510 hc        1 MOL      0.074045
    109 N10         1.8970   -2.3380    0.1020 n         1 MOL     -0.211881
    110 C35         2.9810   -2.5270   -0.9100 c3        1 MOL      0.087227
    111 C36         4.2380   -1.8290   -0.4010 c         1 MOL      0.475716
    112 O17         4.1410   -0.9020    0.3710 o         1 MOL     -0.334011
    113 C37         2.5600   -2.1090   -2.3330 c3        1 MOL     -0.037874
    114 C38         2.2100   -3.2480   -3.2880 c         1 MOL      0.601559
    115 N11         3.2380   -3.9670   -3.7070 n         1 MOL     -0.746162
    116 O18         1.0730   -3.4250   -3.6940 o         1 MOL     -0.482270
    117 H50         1.3940   -1.4670    0.0220 hn        1 MOL      0.084475
    118 H51         3.2980   -3.5730   -1.0030 h1        1 MOL     -0.005149
    119 H52         3.2610   -1.4740   -2.8760 hc        1 MOL      0.027769
    120 H53         1.6380   -1.5320   -2.3310 hc        1 MOL      0.027769
    121 H54         4.1980   -3.9180   -3.3930 hn        1 MOL      0.333070
    122 H55         2.9360   -4.7160   -4.3270 hn        1 MOL      0.333070
    123 N12         5.4800   -2.0990   -0.8580 n         1 MOL     -0.537284
    124 C39         6.6850   -1.4750   -0.3480 c3        1 MOL      0.152376
    125 C40         6.7590    0.0600   -0.4470 c         1 MOL      0.681815
    126 O19         7.2420    0.7000    0.4650 o         1 MOL     -0.537761
    127 C41         7.9450   -2.0200   -1.0890 c3        1 MOL     -0.204326
    128 C42         9.3310   -1.6830   -0.4360 ca        1 MOL      0.019741
    129 C43         9.8670   -2.3820    0.6630 ca        1 MOL     -0.143621
    130 C44        10.1000   -0.6710   -1.0380 ca        1 MOL     -0.143621
    131 C45        11.1770   -2.0760    1.1310 ca        1 MOL     -0.284062
    132 C46        11.3920   -0.3480   -0.5080 ca        1 MOL     -0.284062
    133 C47        11.9800   -1.0930    0.5750 ca        1 MOL      0.371757
    134 O20        13.2030   -0.8300    1.0770 oh        1 MOL     -0.508180
    135 H56         5.5550   -2.8330   -1.5490 hn        1 MOL      0.266632
    136 H57         6.8050   -1.8020    0.6820 h1        1 MOL      0.072554
    137 H58         7.9590   -1.6770   -2.1200 hc        1 MOL      0.064911
    138 H59         7.8530   -3.1060   -1.0690 hc        1 MOL      0.064911
    139 H60         9.2170   -3.0760    1.1690 ha        1 MOL      0.140555
    140 H61         9.7490   -0.0580   -1.8560 ha        1 MOL      0.140555
    141 H62        11.4650   -2.6330    2.0160 ha        1 MOL      0.145577
    142 H63        11.9230    0.5330   -0.8150 ha        1 MOL      0.145577
    143 H64        13.7850   -0.4530    0.4230 ho        1 MOL      0.366642
    144 N13         6.2020    0.6080   -1.5010 n         1 MOL     -0.488286
    145 C48         5.9880    2.0210   -1.6720 c3        1 MOL     -0.026181
    146 C49         5.2570    2.6500   -0.4690 c         1 MOL      0.474336
    147 O21         5.5210    3.7830   -0.0690 o         1 MOL     -0.551530
    148 C50         5.2900    2.2570   -3.0800 c3        1 MOL     -0.042033
    149 C51         3.8000    1.8400   -3.1360 c3        1 MOL     -0.048683
    150 C52         3.2720    1.9910   -4.6220 c         1 MOL      0.628767
    151 O22         3.1780    3.1460   -5.1260 o         1 MOL     -0.698368
    152 O23         3.0230    0.9440   -5.3000 o         1 MOL     -0.698368
    153 H65         5.9030   -0.1050   -2.1410 hn        1 MOL      0.268804
    154 H66         6.9530    2.5360   -1.5890 h1        1 MOL      0.049845
    155 H67         5.8290    1.7660   -3.8900 hc        1 MOL      0.031703
    156 H68         5.3250    3.3190   -3.2880 hc        1 MOL      0.031703
    157 H69         3.2450    2.5000   -2.4680 hc        1 MOL     -0.033935
    158 H70         3.6690    0.7950   -2.8600 hc        1 MOL     -0.033935
    159 N14         4.2820    1.9370    0.1330 n         1 MOL     -0.139208
    160 C53         3.4910    2.4170    1.2450 c3        1 MOL     -0.113831
    161 C54         4.2280    1.9980    2.5310 c         1 MOL      0.442210
    162 O24         4.1080    2.6610    3.5840 o         1 MOL     -0.564227
    163 C55         2.1130    1.7410    1.1180 c3        1 MOL      0.259465
    164 C56         1.4940    1.8960   -0.2700 c3        1 MOL     -0.158850
    165 C57         0.0650    1.2420   -0.3110 c         1 MOL      0.670569
    166 O25        -0.9810    1.8510   -0.5780 o         1 MOL     -0.700767
    167 O26        -0.0520   -0.0030   -0.1250 o         1 MOL     -0.700767
    168 H71         4.0930    1.0040   -0.2140 hn        1 MOL      0.232798
    169 H72         3.3030    3.4920    1.1970 h1        1 MOL      0.097411
    170 H73         1.4780    2.2220    1.8650 hc        1 MOL     -0.029662
    171 H74         2.1920    0.7020    1.4370 hc        1 MOL     -0.029662
    172 H75         2.1300    1.3640   -0.9690 hc        1 MOL      0.062847
    173 H76         1.3370    2.9370   -0.5820 hc        1 MOL      0.062847
    174 N15         5.0440    0.9450    2.5470 n         1 MOL      0.017306
    175 C58         5.8800    0.6370    3.7500 c3        1 MOL     -0.387520
    176 H77         5.2310    0.4110    4.5950 h1        1 MOL      0.128625
    177 H78         6.5150   -0.2240    3.5400 h1        1 MOL      0.128625
    178 H79         6.5020    1.4980    3.9910 h1        1 MOL      0.128625
    179 H80         5.2510    0.4630    1.6850 hn        1 MOL     -0.063854
    180 Ca1        -2.4000   -0.5960   -0.9400 Ca        1 MOL      1.758426
    181 O27        -1.0800   -0.4430   -3.2330 oh        1 MOL     -0.912232
    182 H81        -1.6620    0.1970   -3.6280 ho        1 MOL      0.429217
    183 H82        -0.4170   -0.6130   -3.9080 ho        1 MOL      0.429217
@<TRIPOS>BOND
     1    1    2 1   
     2    1    4 1   
     3    1    5 1   
     4    1    6 1   
     5    2    3 2   
     6    2    7 1   
     7    7    8 1   
     8    7   15 1   
     9    8    9 1   
    10    8   11 1   
    11    8   16 1   
    12    9   10 2   
    13    9   19 1   
    14   11   12 1   
    15   11   17 1   
    16   11   18 1   
    17   12   13 1   
    18   12   14 1   
    19   19   20 1   
    20   19   27 1   
    21   20   21 1   
    22   20   23 1   
    23   20   28 1   
    24   21   22 2   
    25   21   38 1   
    26   23   24 1   
    27   23   25 1   
    28   23   29 1   
    29   24   26 1   
    30   24   30 1   
    31   24   31 1   
    32   25   32 1   
    33   25   33 1   
    34   25   34 1   
    35   26   35 1   
    36   26   36 1   
    37   26   37 1   
    38   38   39 1   
    39   38   46 1   
    40   39   40 1   
    41   39   42 1   
    42   39   47 1   
    43   40   41 2   
    44   40   50 1   
    45   42   43 1   
    46   42   48 1   
    47   42   49 1   
    48   43   44 1   
    49   43   45 1   
    50   50   51 1   
    51   50   54 1   
    52   51   52 1   
    53   51   55 1   
    54   51   56 1   
    55   52   53 2   
    56   52   57 1   
    57   57   58 1   
    58   57   65 1   
    59   58   59 1   
    60   58   61 1   
    61   58   66 1   
    62   59   60 2   
    63   59   69 1   
    64   61   62 1   
    65   61   67 1   
    66   61   68 1   
    67   62   63 1   
    68   62   64 1   
    69   69   70 1   
    70   69   73 1   
    71   70   71 1   
    72   70   74 1   
    73   70   75 1   
    74   71   72 2   
    75   71   76 1   
    76   76   77 1   
    77   76   85 1   
    78   77   78 1   
    79   77   80 1   
    80   77   86 1   
    81   78   79 2   
    82   78   93 1   
    83   80   81 1   
    84   80   87 1   
    85   80   88 1   
    86   81   82 1   
    87   81   89 1   
    88   81   90 1   
    89   82   83 1   
    90   82   84 2   
    91   83   91 1   
    92   83   92 1   
    93   93   94 1   
    94   93  100 1   
    95   94   95 1   
    96   94   97 1   
    97   94  101 1   
    98   95   96 2   
    99   95  109 1   
   100   97   98 1   
   101   97   99 1   
   102   97  102 1   
   103   98  103 1   
   104   98  104 1   
   105   98  105 1   
   106   99  106 1   
   107   99  107 1   
   108   99  108 1   
   109  109  110 1   
   110  109  117 1   
   111  110  111 1   
   112  110  113 1   
   113  110  118 1   
   114  111  112 2   
   115  111  123 1   
   116  113  114 1   
   117  113  119 1   
   118  113  120 1   
   119  114  115 1   
   120  114  116 2   
   121  115  121 1   
   122  115  122 1   
   123  123  124 1   
   124  123  135 1   
   125  124  125 1   
   126  124  127 1   
   127  124  136 1   
   128  125  126 2   
   129  125  144 1   
   130  127  128 1   
   131  127  137 1   
   132  127  138 1   
   133  128  129 ar  
   134  128  130 ar  
   135  129  131 ar  
   136  129  139 1   
   137  130  132 ar  
   138  130  140 1   
   139  131  133 ar  
   140  131  141 1   
   141  132  133 ar  
   142  132  142 1   
   143  133  134 1   
   144  134  143 1   
   145  144  145 1   
   146  144  153 1   
   147  145  146 1   
   148  145  148 1   
   149  145  154 1   
   150  146  147 2   
   151  146  159 1   
   152  148  149 1   
   153  148  155 1   
   154  148  156 1   
   155  149  150 1   
   156  149  157 1   
   157  149  158 1   
   158  150  151 1   
   159  150  152 1   
   160  159  160 1   
   161  159  168 1   
   162  160  161 1   
   163  160  163 1   
   164  160  169 1   
   165  161  162 2   
   166  161  174 1   
   167  163  164 1   
   168  163  170 1   
   169  163  171 1   
   170  164  165 1   
   171  164  172 1   
   172  164  173 1   
   173  165  166 1   
   174  165  167 1   
   175  174  175 1   
   176  174  179 1   
   177  175  176 1   
   178  175  177 1   
   179  175  178 1   
   180  181  182 1   
   181  181  183 1   
@<TRIPOS>SUBSTRUCTURE
     1 MOL         1 TEMP              0 ****  ****    0 ROOT
