@<TRIPOS>MOLECULE
MOL
  172   171     1     0     0
SMALL
resp


@<TRIPOS>ATOM
      1 C1          0.1450    3.2950    5.8690 c3        1 MOL     -0.361755
      2 C2         -0.2510    3.4540    4.3680 c         1 MOL      0.705610
      3 O1          0.5300    3.7130    3.4950 o         1 MOL     -0.535012
      4 H1         -0.2290    2.3430    6.2440 hc        1 MOL      0.079209
      5 H2          1.2310    3.3220    5.9640 hc        1 MOL      0.079209
      6 H3         -0.2900    4.1090    6.4490 hc        1 MOL      0.079209
      7 N1         -1.4970    3.2570    4.1320 n         1 MOL     -0.519401
      8 C3         -2.0520    3.1330    2.7940 c3        1 MOL     -0.008717
      9 C4         -2.0200    4.4750    2.0180 c         1 MOL      0.575815
     10 O2         -2.2130    5.5630    2.6090 o         1 MOL     -0.591048
     11 C5         -3.5430    2.8380    2.8620 c3        1 MOL     -0.267154
     12 C6         -4.1680    2.5610    1.4980 c         1 MOL      0.684711
     13 O3         -5.3940    2.7990    1.3220 o         1 MOL     -0.656075
     14 O4         -3.4750    2.0870    0.6050 o         1 MOL     -0.656075
     15 H4         -2.1130    3.0660    4.9120 hn        1 MOL      0.300188
     16 H5         -1.4160    2.3800    2.3370 h1        1 MOL      0.125942
     17 H6         -4.1870    3.5110    3.4240 hc        1 MOL      0.060407
     18 H7         -3.6390    1.9210    3.4540 hc        1 MOL      0.060407
     19 N2         -1.8020    4.4150    0.7240 n         1 MOL     -0.469139
     20 C7         -2.0550    5.5330   -0.2740 c3        1 MOL      0.349581
     21 C8         -2.8790    5.2080   -1.5200 c         1 MOL      0.470329
     22 O5         -2.8700    6.0190   -2.4580 o         1 MOL     -0.557374
     23 C9         -0.6550    6.0760   -0.5350 c3        1 MOL     -0.138416
     24 H8         -1.6660    3.4730    0.3930 hn        1 MOL      0.365675
     25 H9         -2.6110    6.3580    0.1700 h1        1 MOL     -0.018895
     26 H10        -0.0580    5.2300   -0.8890 hc        1 MOL      0.021004
     27 H11        -0.6780    6.8070   -1.3420 hc        1 MOL      0.021004
     28 H12        -0.1990    6.5210    0.3580 hc        1 MOL      0.021004
     29 N3         -3.5930    4.0470   -1.5720 n         1 MOL     -0.394038
     30 C10        -4.3620    3.5990   -2.7220 c3        1 MOL      0.149589
     31 C11        -5.7820    2.9830   -2.4780 c         1 MOL      0.320975
     32 O6         -6.6320    2.8900   -3.3820 o         1 MOL     -0.525475
     33 C12        -3.5060    2.6320   -3.5520 c3        1 MOL     -0.255084
     34 C13        -2.9760    1.4970   -2.7280 c         1 MOL      0.726068
     35 O7         -3.7310    0.6640   -2.1910 o         1 MOL     -0.709938
     36 O8         -1.7490    1.4320   -2.4200 o         1 MOL     -0.709938
     37 H13        -3.5690    3.4330   -0.7690 hn        1 MOL      0.165168
     38 H14        -4.4480    4.4960   -3.3370 h1        1 MOL      0.072694
     39 H15        -2.7340    3.2360   -4.0330 hc        1 MOL      0.070888
     40 H16        -4.1630    2.2110   -4.3080 hc        1 MOL      0.070888
     41 N4         -6.1230    2.5340   -1.2020 n         1 MOL     -0.189982
     42 C14        -7.3690    1.8560   -0.9340 c3        1 MOL     -0.171901
     43 C15        -7.4150    0.3630   -1.2960 c         1 MOL      0.465417
     44 O9         -8.4630   -0.2870   -1.0920 o         1 MOL     -0.617744
     45 H17        -5.4180    2.6260   -0.4800 hn        1 MOL      0.193985
     46 H18        -8.2630    2.2900   -1.3840 h1        1 MOL      0.110896
     47 H19        -7.5590    1.9370    0.1350 h1        1 MOL      0.110896
     48 N5         -6.3570   -0.2460   -1.8120 n         1 MOL     -0.125945
     49 C16        -6.3870   -1.7020   -2.1020 c3        1 MOL     -0.215321
     50 C17        -6.5630   -2.7390   -0.9560 c         1 MOL      0.623296
     51 O10        -6.8200   -3.8880   -1.2840 o         1 MOL     -0.551084
     52 C18        -5.2240   -2.0330   -3.1080 c3        1 MOL     -0.001746
     53 C19        -3.8040   -2.1830   -2.5270 c         1 MOL      0.604771
     54 N6         -2.8120   -2.2950   -3.3100 n         1 MOL     -0.665004
     55 O11        -3.5610   -2.2090   -1.3410 o         1 MOL     -0.587186
     56 H20        -5.5210    0.3090   -1.7440 hn        1 MOL      0.162551
     57 H21        -7.3010   -1.8850   -2.6710 h1        1 MOL      0.137146
     58 H22        -5.2520   -1.4420   -4.0190 hc        1 MOL      0.025731
     59 H23        -5.3870   -3.0240   -3.5310 hc        1 MOL      0.025731
     60 H24        -2.9570   -2.2060   -4.2980 hn        1 MOL      0.338062
     61 H25        -1.9020   -2.2610   -2.8530 hn        1 MOL      0.338062
     62 N7         -6.3540   -2.3620    0.3450 n         1 MOL     -0.416144
     63 C20        -6.4140   -3.2160    1.5670 c3        1 MOL     -0.172245
     64 C21        -5.0950   -4.0260    1.9400 c         1 MOL      0.356845
     65 O12        -5.1360   -4.9180    2.8040 o         1 MOL     -0.539924
     66 H26        -6.1120   -1.3950    0.5260 hn        1 MOL      0.310943
     67 H27        -7.1280   -4.0010    1.3140 h1        1 MOL      0.127503
     68 H28        -6.9730   -2.6870    2.3410 h1        1 MOL      0.127503
     69 N8         -4.0690   -3.7610    1.1600 n         1 MOL      0.045252
     70 C22        -2.8020   -4.4870    1.3020 c3        1 MOL     -0.373878
     71 C23        -1.5620   -3.5650    1.1460 c         1 MOL      0.533923
     72 O13        -1.6220   -2.4830    0.6510 o         1 MOL     -0.507695
     73 C24        -2.6190   -5.5580    0.2210 c3        1 MOL      0.529324
     74 C25        -3.7080   -6.6250    0.3150 c3        1 MOL     -0.676970
     75 O14        -2.7620   -5.0940   -1.0940 oh        1 MOL     -0.582140
     76 H29        -4.1370   -3.0320    0.4610 hn        1 MOL      0.131912
     77 H30        -2.8360   -4.9490    2.2950 h1        1 MOL      0.134744
     78 H31        -1.6250   -5.9920    0.2130 h1        1 MOL     -0.024005
     79 H32        -2.3270   -4.2480   -1.1920 ho        1 MOL      0.346211
     80 H33        -4.6690   -6.1800    0.0160 hc        1 MOL      0.181330
     81 H34        -3.2860   -7.3460   -0.3840 hc        1 MOL      0.181330
     82 H35        -3.7170   -6.9760    1.3460 hc        1 MOL      0.181330
     83 N9         -0.4030   -4.0030    1.6950 n         1 MOL     -0.388813
     84 C26         0.7830   -3.1410    1.8240 c3        1 MOL     -0.021834
     85 C27         1.5520   -3.3360    0.5330 c         1 MOL      0.514783
     86 O15         1.9170   -4.4830    0.1950 o         1 MOL     -0.596708
     87 C28         1.5380   -3.4790    3.0820 c3        1 MOL      0.058331
     88 C29         0.7990   -2.7980    4.3260 c3        1 MOL      0.036724
     89 C30         3.0100   -3.0080    3.0280 c3        1 MOL      0.007183
     90 C31         1.5020   -2.9400    5.7260 c3        1 MOL     -0.221547
     91 H36        -0.4980   -4.8860    2.1700 hn        1 MOL      0.237490
     92 H37         0.4200   -2.1150    1.9370 h1        1 MOL      0.054300
     93 H38         1.6100   -4.5620    3.2420 hc        1 MOL      0.010970
     94 H39        -0.2010   -3.2330    4.4430 hc        1 MOL      0.009192
     95 H40         0.7500   -1.7290    4.1230 hc        1 MOL      0.009192
     96 H41         3.6230   -3.2250    3.9030 hc        1 MOL     -0.004013
     97 H42         3.5400   -3.5440    2.2360 hc        1 MOL     -0.004013
     98 H43         3.0370   -1.9320    2.8910 hc        1 MOL     -0.004013
     99 H44         0.8270   -2.4750    6.4440 hc        1 MOL      0.047830
    100 H45         1.7490   -3.9740    5.9750 hc        1 MOL      0.047830
    101 H46         2.3780   -2.2930    5.6910 hc        1 MOL      0.047830
    102 N10         1.8410   -2.2320   -0.1230 n         1 MOL     -0.252139
    103 C32         2.6790   -2.1470   -1.3360 c3        1 MOL      0.090364
    104 C33         4.0930   -1.5710   -0.9420 c         1 MOL      0.458036
    105 O16         4.2950   -0.8230    0.0600 o         1 MOL     -0.350237
    106 C34         2.0640   -1.2800   -2.4650 c3        1 MOL     -0.304166
    107 C35         0.5560   -1.5680   -2.7100 c         1 MOL      0.690534
    108 O17        -0.3010   -1.2400   -1.8290 o         1 MOL     -0.658546
    109 O18         0.1510   -1.9130   -3.8300 o         1 MOL     -0.658546
    110 H47         1.3280   -1.4170    0.1980 hn        1 MOL      0.183751
    111 H48         2.8590   -3.1640   -1.6750 h1        1 MOL      0.074857
    112 H49         2.6480   -1.5600   -3.3390 hc        1 MOL      0.088903
    113 H50         2.1830   -0.1950   -2.3710 hc        1 MOL      0.088903
    114 N11         5.1100   -1.8820   -1.7980 n         1 MOL     -0.747840
    115 C36         6.5010   -1.5090   -1.5090 c3        1 MOL      0.498179
    116 C37         6.7160   -0.0440   -1.0730 c         1 MOL      0.300355
    117 O19         7.4960    0.1950   -0.1150 o         1 MOL     -0.506279
    118 C38         7.4200   -1.9110   -2.7220 c3        1 MOL     -0.221486
    119 C39         8.8420   -1.4910   -2.5250 ca        1 MOL      0.117071
    120 C40         9.4110   -1.9200   -1.3200 ca        1 MOL     -0.189898
    121 C41         9.5220   -0.6460   -3.3860 ca        1 MOL     -0.189898
    122 C42        10.6490   -1.3440   -0.9910 ca        1 MOL     -0.071981
    123 C43        10.8510   -0.3110   -3.1400 ca        1 MOL     -0.071981
    124 C44        11.3920   -0.5880   -1.9400 ca        1 MOL     -0.141101
    125 H51         4.9300   -2.3490   -2.6690 hn        1 MOL      0.363400
    126 H52         6.8140   -2.1480   -0.6830 h1        1 MOL      0.038134
    127 H53         6.9510   -1.5110   -3.6140 hc        1 MOL      0.044883
    128 H54         7.4210   -2.9980   -2.7710 hc        1 MOL      0.044883
    129 H55         8.8590   -2.4250   -0.5500 ha        1 MOL      0.117408
    130 H56         8.9990   -0.3060   -4.2780 ha        1 MOL      0.117408
    131 H57        11.0060   -1.7070   -0.0430 ha        1 MOL      0.097631
    132 H58        11.4100    0.2960   -3.8390 ha        1 MOL      0.097631
    133 H59        12.3670   -0.1630   -1.7390 ha        1 MOL      0.104691
    134 N12         5.9790    0.9420   -1.5420 n         1 MOL     -0.044742
    135 C45         6.1570    2.3110   -1.0510 c3        1 MOL      0.067497
    136 C46         5.6040    2.6230    0.3350 c         1 MOL      0.195697
    137 O20         6.0600    3.5560    1.0150 o         1 MOL     -0.489036
    138 C47         5.4010    3.2560   -2.0390 c3        1 MOL     -0.064841
    139 C48         5.3910    2.4170   -3.3180 c3        1 MOL      0.035869
    140 C49         5.2460    0.9660   -2.8450 c3        1 MOL     -0.113681
    141 H60         7.1830    2.6740   -1.1130 h1        1 MOL      0.067329
    142 H61         4.3520    3.2550   -1.7280 hc        1 MOL      0.048903
    143 H62         5.8380    4.2460   -2.0860 hc        1 MOL      0.048903
    144 H63         4.6030    2.6540   -4.0290 hc        1 MOL      0.000505
    145 H64         6.3500    2.6020   -3.7850 hc        1 MOL      0.000505
    146 H65         4.1870    0.7130   -2.7400 h1        1 MOL      0.070902
    147 H66         5.6540    0.3540   -3.6430 h1        1 MOL      0.070902
    148 N13         4.6500    1.7700    0.7860 n         1 MOL      0.077480
    149 C50         4.0040    1.9160    2.1330 c3        1 MOL     -0.083314
    150 C51         4.7670    1.0810    3.2000 c         1 MOL      0.424521
    151 O21         5.0490    1.5870    4.2500 o         1 MOL     -0.538025
    152 C52         2.5530    1.3650    2.0960 c3        1 MOL     -0.301409
    153 C53         1.6950    1.9430    0.9730 c3        1 MOL      0.105675
    154 C54         0.3580    1.3380    0.8160 c         1 MOL      0.719424
    155 O22         0.1540    0.2100    1.2650 o         1 MOL     -0.791846
    156 O23        -0.5390    1.9440    0.2790 o         1 MOL     -0.791846
    157 H67         4.4140    0.9300    0.2850 hn        1 MOL      0.045538
    158 H68         4.0580    2.9660    2.4150 h1        1 MOL      0.111366
    159 H69         1.9590    1.4950    3.0010 hc        1 MOL      0.119782
    160 H70         2.6790    0.2940    1.9470 hc        1 MOL      0.119782
    161 H71         2.2680    1.9200    0.0350 hc        1 MOL     -0.008801
    162 H72         1.4990    2.9860    1.2030 hc        1 MOL     -0.008801
    163 N14         5.3490   -0.0050    2.7190 n         1 MOL      0.009489
    164 C55         6.4830   -0.7050    3.3270 c3        1 MOL     -0.253358
    165 H73         7.3410   -0.0350    3.3720 h1        1 MOL      0.089165
    166 H74         6.2160   -1.0230    4.3350 h1        1 MOL      0.089165
    167 H75         6.7370   -1.5790    2.7250 h1        1 MOL      0.089165
    168 H76         4.9860   -0.3660    1.8540 hn        1 MOL      0.011906
    169 Ca1        -2.0890   -0.0720   -0.2290 Ca        1 MOL      1.732225
    170 O24        -3.9430   -0.6360    1.5640 oh        1 MOL     -0.923242
    171 H77        -3.3820   -0.3860    2.2980 ho        1 MOL      0.429893
    172 H78        -4.8330   -0.4160    1.8520 ho        1 MOL      0.429893
@<TRIPOS>BOND
     1    1    2 1   
     2    1    4 1   
     3    1    5 1   
     4    1    6 1   
     5    2    3 2   
     6    2    7 1   
     7    7    8 1   
     8    7   15 1   
     9    8    9 1   
    10    8   11 1   
    11    8   16 1   
    12    9   10 2   
    13    9   19 1   
    14   11   12 1   
    15   11   17 1   
    16   11   18 1   
    17   12   13 1   
    18   12   14 1   
    19   19   20 1   
    20   19   24 1   
    21   20   21 1   
    22   20   23 1   
    23   20   25 1   
    24   21   22 2   
    25   21   29 1   
    26   23   26 1   
    27   23   27 1   
    28   23   28 1   
    29   29   30 1   
    30   29   37 1   
    31   30   31 1   
    32   30   33 1   
    33   30   38 1   
    34   31   32 2   
    35   31   41 1   
    36   33   34 1   
    37   33   39 1   
    38   33   40 1   
    39   34   35 1   
    40   34   36 1   
    41   41   42 1   
    42   41   45 1   
    43   42   43 1   
    44   42   46 1   
    45   42   47 1   
    46   43   44 2   
    47   43   48 1   
    48   48   49 1   
    49   48   56 1   
    50   49   50 1   
    51   49   52 1   
    52   49   57 1   
    53   50   51 2   
    54   50   62 1   
    55   52   53 1   
    56   52   58 1   
    57   52   59 1   
    58   53   54 1   
    59   53   55 2   
    60   54   60 1   
    61   54   61 1   
    62   62   63 1   
    63   62   66 1   
    64   63   64 1   
    65   63   67 1   
    66   63   68 1   
    67   64   65 2   
    68   64   69 1   
    69   69   70 1   
    70   69   76 1   
    71   70   71 1   
    72   70   73 1   
    73   70   77 1   
    74   71   72 2   
    75   71   83 1   
    76   73   74 1   
    77   73   75 1   
    78   73   78 1   
    79   74   80 1   
    80   74   81 1   
    81   74   82 1   
    82   75   79 1   
    83   83   84 1   
    84   83   91 1   
    85   84   85 1   
    86   84   87 1   
    87   84   92 1   
    88   85   86 2   
    89   85  102 1   
    90   87   88 1   
    91   87   89 1   
    92   87   93 1   
    93   88   90 1   
    94   88   94 1   
    95   88   95 1   
    96   89   96 1   
    97   89   97 1   
    98   89   98 1   
    99   90   99 1   
   100   90  100 1   
   101   90  101 1   
   102  102  103 1   
   103  102  110 1   
   104  103  104 1   
   105  103  106 1   
   106  103  111 1   
   107  104  105 2   
   108  104  114 1   
   109  106  107 1   
   110  106  112 1   
   111  106  113 1   
   112  107  108 1   
   113  107  109 1   
   114  114  115 1   
   115  114  125 1   
   116  115  116 1   
   117  115  118 1   
   118  115  126 1   
   119  116  117 2   
   120  116  134 1   
   121  118  119 1   
   122  118  127 1   
   123  118  128 1   
   124  119  120 ar  
   125  119  121 ar  
   126  120  122 ar  
   127  120  129 1   
   128  121  123 ar  
   129  121  130 1   
   130  122  124 ar  
   131  122  131 1   
   132  123  124 ar  
   133  123  132 1   
   134  124  133 1   
   135  134  135 1   
   136  134  140 1   
   137  135  136 1   
   138  135  138 1   
   139  135  141 1   
   140  136  137 2   
   141  136  148 1   
   142  138  139 1   
   143  138  142 1   
   144  138  143 1   
   145  139  140 1   
   146  139  144 1   
   147  139  145 1   
   148  140  146 1   
   149  140  147 1   
   150  148  149 1   
   151  148  157 1   
   152  149  150 1   
   153  149  152 1   
   154  149  158 1   
   155  150  151 2   
   156  150  163 1   
   157  152  153 1   
   158  152  159 1   
   159  152  160 1   
   160  153  154 1   
   161  153  161 1   
   162  153  162 1   
   163  154  155 1   
   164  154  156 1   
   165  163  164 1   
   166  163  168 1   
   167  164  165 1   
   168  164  166 1   
   169  164  167 1   
   170  170  171 1   
   171  170  172 1   
@<TRIPOS>SUBSTRUCTURE
     1 MOL         1 TEMP              0 ****  ****    0 ROOT
