@<TRIPOS>MOLECULE
MOL
  172   171     1     0     0
SMALL
resp


@<TRIPOS>ATOM
      1 C1         -0.0850   -3.5810    5.6000 c3        1 MOL     -0.341082
      2 C2          0.4440   -3.5400    4.1750 c         1 MOL      0.691431
      3 O1         -0.1800   -4.0520    3.2140 o         1 MOL     -0.560139
      4 H1          0.3430   -4.4380    6.1200 hc        1 MOL      0.085485
      5 H2          0.1970   -2.6640    6.1190 hc        1 MOL      0.085485
      6 H3         -1.1700   -3.6710    5.5830 hc        1 MOL      0.085485
      7 N1          1.6810   -3.1020    3.8890 n         1 MOL     -0.561790
      8 C3          2.2650   -2.8830    2.5840 c3        1 MOL      0.267549
      9 C4          2.4740   -4.2010    1.8600 c         1 MOL      0.506041
     10 O2          2.8690   -5.1750    2.4980 o         1 MOL     -0.592637
     11 C5          3.6640   -2.3150    2.8160 c3        1 MOL     -0.317331
     12 C6          4.4080   -2.1980    1.5030 c         1 MOL      0.710221
     13 O3          3.7740   -1.7580    0.5180 o         1 MOL     -0.632293
     14 O4          5.6120   -2.6500    1.4670 o         1 MOL     -0.632293
     15 H4          2.2950   -2.7810    4.6260 hn        1 MOL      0.282882
     16 H5          1.6450   -2.1760    2.0260 h1        1 MOL     -0.012673
     17 H6          4.3240   -2.8570    3.4830 hc        1 MOL      0.044845
     18 H7          3.4720   -1.3460    3.2820 hc        1 MOL      0.044845
     19 N2          2.1980   -4.2680    0.6100 n         1 MOL     -0.308905
     20 C7          2.5770   -5.3060   -0.3330 c3        1 MOL      0.229448
     21 C8          3.6480   -5.0340   -1.3970 c         1 MOL      0.617797
     22 O5          3.9100   -5.9570   -2.1540 o         1 MOL     -0.605342
     23 C9          1.2470   -5.8410   -0.8210 c3        1 MOL     -0.158768
     24 H8          1.7070   -3.4830    0.2140 hn        1 MOL      0.208332
     25 H9          2.9940   -6.1650    0.1860 h1        1 MOL      0.008743
     26 H10         0.7750   -5.0670   -1.4250 hc        1 MOL      0.029188
     27 H11         1.3190   -6.7250   -1.4510 hc        1 MOL      0.029188
     28 H12         0.5710   -6.1380   -0.0180 hc        1 MOL      0.029188
     29 N3          4.3410   -3.9130   -1.3760 n         1 MOL     -0.501495
     30 C10         5.0110   -3.4430   -2.6460 c3        1 MOL      0.063290
     31 C11         6.2680   -2.5900   -2.4120 c         1 MOL      0.395726
     32 O6          7.0750   -2.3640   -3.3190 o         1 MOL     -0.569873
     33 C12         4.0770   -2.5670   -3.5610 c3        1 MOL     -0.232934
     34 C13         3.3660   -1.5460   -2.7190 c         1 MOL      0.787599
     35 O7          4.0090   -0.6570   -2.1160 o         1 MOL     -0.732940
     36 O8          2.1190   -1.5100   -2.7200 o         1 MOL     -0.732940
     37 H13         4.0370   -3.1860   -0.7430 hn        1 MOL      0.193319
     38 H14         5.2720   -4.3020   -3.2590 h1        1 MOL      0.105287
     39 H15         3.3640   -3.1700   -4.1140 hc        1 MOL      0.065655
     40 H16         4.6100   -1.9770   -4.3090 hc        1 MOL      0.065655
     41 N4          6.5470   -2.2160   -1.1440 n         1 MOL     -0.122654
     42 C14         7.6900   -1.4140   -0.7030 c3        1 MOL     -0.303363
     43 C15         7.5060    0.0380   -0.8360 c         1 MOL      0.665850
     44 O9          8.2030    0.8210   -0.1290 o         1 MOL     -0.678784
     45 H17         5.8740   -2.2980   -0.3980 hn        1 MOL      0.149095
     46 H18         8.4930   -1.7520   -1.3610 h1        1 MOL      0.134553
     47 H19         7.9560   -1.5460    0.3520 h1        1 MOL      0.134553
     48 N5          6.4970    0.5510   -1.5140 n         1 MOL     -0.464871
     49 C16         6.4200    1.9980   -1.8520 c3        1 MOL      0.004597
     50 C17         6.1850    3.0140   -0.7510 c         1 MOL      0.396037
     51 O10         6.0030    4.2030   -1.1040 o         1 MOL     -0.533078
     52 C18         5.3880    2.1250   -2.9610 c3        1 MOL     -0.186712
     53 C19         3.9350    2.1750   -2.5040 c         1 MOL      0.640282
     54 N6          3.0880    2.0530   -3.5010 n         1 MOL     -0.682570
     55 O11         3.5410    2.2240   -1.3320 o         1 MOL     -0.625131
     56 H20         5.7230    0.0100   -1.8690 hn        1 MOL      0.337920
     57 H21         7.3650    2.3510   -2.2760 h1        1 MOL      0.113409
     58 H22         5.4680    1.3270   -3.7020 hc        1 MOL      0.075486
     59 H23         5.5690    3.0640   -3.4870 hc        1 MOL      0.075486
     60 H24         3.3600    2.0030   -4.4650 hn        1 MOL      0.344852
     61 H25         2.1000    2.0230   -3.2890 hn        1 MOL      0.344852
     62 N7          6.2650    2.7170    0.5500 n         1 MOL     -0.085597
     63 C20         6.1780    3.6260    1.6720 c3        1 MOL     -0.399937
     64 C21         4.8510    4.3430    1.8420 c         1 MOL      0.630643
     65 O12         4.8500    5.3040    2.5890 o         1 MOL     -0.560650
     66 H26         6.5340    1.7600    0.7500 hn        1 MOL      0.286370
     67 H27         6.9060    4.3970    1.4210 h1        1 MOL      0.151846
     68 H28         6.4200    3.1230    2.6150 h1        1 MOL      0.151846
     69 N8          3.7290    3.8310    1.2570 n         1 MOL     -0.215429
     70 C22         2.4650    4.5380    1.1790 c3        1 MOL     -0.414880
     71 C23         1.2670    3.5750    1.1010 c         1 MOL      0.792178
     72 O13         1.3920    2.5070    0.5230 o         1 MOL     -0.596590
     73 C24         2.3610    5.4770   -0.0550 c3        1 MOL      0.512166
     74 C25         3.1880    6.7860    0.0940 c3        1 MOL     -0.327708
     75 O14         2.8950    4.9810   -1.2220 oh        1 MOL     -0.627009
     76 H29         3.8010    3.0540    0.6270 hn        1 MOL      0.117848
     77 H30         2.3740    5.1130    2.0990 h1        1 MOL      0.124247
     78 H31         1.3160    5.7850   -0.1760 h1        1 MOL     -0.010759
     79 H32         3.4730    4.2610   -0.9430 ho        1 MOL      0.435816
     80 H33         2.8000    7.4200    0.8940 hc        1 MOL      0.066522
     81 H34         4.2390    6.5490    0.2370 hc        1 MOL      0.066522
     82 H35         3.0750    7.4210   -0.7770 hc        1 MOL      0.066522
     83 N9          0.1590    3.8770    1.7390 n         1 MOL     -0.631692
     84 C26        -1.0230    2.9380    1.8060 c3        1 MOL     -0.012273
     85 C27        -1.7650    3.0220    0.4820 c         1 MOL      0.574194
     86 O15        -2.3410    4.0570    0.1910 o         1 MOL     -0.607264
     87 C28        -1.9120    3.1730    3.0130 c3        1 MOL      0.309433
     88 C29        -1.1040    3.4440    4.2800 c3        1 MOL      0.101354
     89 C30        -2.9120    2.0970    3.2630 c3        1 MOL     -0.301846
     90 C31        -1.6980    3.5820    5.6800 c3        1 MOL     -0.180387
     91 H36         0.0850    4.7800    2.1810 hn        1 MOL      0.303976
     92 H37        -0.6650    1.9160    1.8530 h1        1 MOL      0.166949
     93 H38        -2.4690    4.1030    2.8720 hc        1 MOL     -0.061781
     94 H39        -0.6500    4.4170    4.0980 hc        1 MOL     -0.042853
     95 H40        -0.2220    2.7990    4.2710 hc        1 MOL     -0.042853
     96 H41        -3.5750    2.0150    2.4070 hc        1 MOL      0.053244
     97 H42        -2.3170    1.2050    3.3830 hc        1 MOL      0.053244
     98 H43        -3.4660    2.3510    4.1780 hc        1 MOL      0.053244
     99 H44        -1.0140    3.9320    6.4550 hc        1 MOL      0.038826
    100 H45        -2.5590    4.2510    5.6190 hc        1 MOL      0.038826
    101 H46        -2.1070    2.6060    5.9350 hc        1 MOL      0.038826
    102 N10        -1.9030    1.9340   -0.2730 n         1 MOL     -0.022971
    103 C32        -2.8630    1.8540   -1.4220 c3        1 MOL      0.043414
    104 C33        -4.2290    1.4590   -0.8980 c         1 MOL      0.387459
    105 O16        -4.3660    0.9770    0.2070 o         1 MOL     -0.318341
    106 C34        -2.3350    0.8090   -2.3560 c3        1 MOL     -0.242392
    107 C35        -0.8450    0.9980   -2.7570 c         1 MOL      0.696441
    108 O17         0.1170    0.6900   -1.9760 o         1 MOL     -0.666507
    109 O18        -0.6020    1.4690   -3.8970 o         1 MOL     -0.666507
    110 H47        -1.5550    1.0180   -0.0340 hn        1 MOL     -0.286767
    111 H48        -2.8700    2.8700   -1.7950 h1        1 MOL      0.071204
    112 H49        -2.9560    0.7820   -3.2420 hc        1 MOL      0.090497
    113 H50        -2.4690   -0.1320   -1.8160 hc        1 MOL      0.090497
    114 N11        -5.2570    1.4710   -1.7430 n         1 MOL     -0.546719
    115 C36        -6.6210    1.0260   -1.4390 c3        1 MOL      0.351498
    116 C37        -6.8500   -0.3450   -0.8990 c         1 MOL      0.320633
    117 O19        -7.5110   -0.5010    0.1440 o         1 MOL     -0.498589
    118 C38        -7.3450    1.5240   -2.7020 c3        1 MOL     -0.169743
    119 C39        -8.8230    1.5200   -2.5230 ca        1 MOL      0.129081
    120 C40        -9.4550    2.6990   -2.0220 ca        1 MOL     -0.212924
    121 C41        -9.5980    0.4440   -2.8370 ca        1 MOL     -0.212924
    122 C42       -10.8840    2.6990   -1.9170 ca        1 MOL     -0.055730
    123 C43       -10.9120    0.4570   -2.5460 ca        1 MOL     -0.055730
    124 C44       -11.6480    1.5380   -2.1110 ca        1 MOL     -0.166275
    125 H51        -5.0710    1.7610   -2.6920 hn        1 MOL      0.304004
    126 H52        -6.9720    1.6150   -0.5990 h1        1 MOL      0.028449
    127 H53        -7.0090    0.9820   -3.5890 hc        1 MOL      0.056780
    128 H54        -7.0200    2.5430   -2.8990 hc        1 MOL      0.056780
    129 H55        -8.9800    3.6340   -1.7630 ha        1 MOL      0.129505
    130 H56        -9.2030   -0.5000   -3.1610 ha        1 MOL      0.129505
    131 H57       -11.4320    3.5570   -1.5780 ha        1 MOL      0.086047
    132 H58       -11.5220   -0.4250   -2.6500 ha        1 MOL      0.086047
    133 H59       -12.6990    1.4820   -1.8880 ha        1 MOL      0.124666
    134 N12        -6.3270   -1.4160   -1.4830 n         1 MOL     -0.044436
    135 C45        -6.4870   -2.7270   -0.8740 c3        1 MOL     -0.021595
    136 C46        -5.8410   -2.8650    0.5010 c         1 MOL      0.353048
    137 O20        -6.4270   -3.4200    1.4640 o         1 MOL     -0.529875
    138 C47        -5.9710   -3.7260   -1.9540 c3        1 MOL     -0.058887
    139 C48        -5.0250   -2.8670   -2.7840 c3        1 MOL     -0.119894
    140 C49        -5.5840   -1.4370   -2.7270 c3        1 MOL      0.067153
    141 H60        -7.5640   -2.9120   -0.8160 h1        1 MOL      0.073027
    142 H61        -5.5140   -4.6170   -1.5300 hc        1 MOL      0.048867
    143 H62        -6.8200   -4.0870   -2.5350 hc        1 MOL      0.048867
    144 H63        -4.0750   -2.8780   -2.2470 hc        1 MOL      0.066713
    145 H64        -4.9140   -3.2140   -3.8120 hc        1 MOL      0.066713
    146 H65        -4.8170   -0.6700   -2.8300 h1        1 MOL     -0.003431
    147 H66        -6.2790   -1.2170   -3.5300 h1        1 MOL     -0.003431
    148 N13        -4.6970   -2.2810    0.7180 n         1 MOL     -0.008238
    149 C50        -4.0410   -2.2240    2.0640 c3        1 MOL     -0.125527
    150 C51        -4.8440   -1.5050    3.1190 c         1 MOL      0.408041
    151 O21        -4.7480   -1.8970    4.2890 o         1 MOL     -0.563692
    152 C52        -2.6790   -1.5410    1.8790 c3        1 MOL      0.006241
    153 C53        -1.8350   -1.9250    0.6450 c3        1 MOL     -0.268303
    154 C54        -0.3980   -1.4230    0.6450 c         1 MOL      0.778653
    155 O22         0.4620   -2.0510   -0.0780 o         1 MOL     -0.718499
    156 O23        -0.1400   -0.3040    1.1820 o         1 MOL     -0.718499
    157 H67        -4.3940   -1.6630   -0.0160 hn        1 MOL     -0.041296
    158 H68        -3.8950   -3.2200    2.4870 h1        1 MOL      0.120288
    159 H69        -2.1230   -1.5640    2.8160 hc        1 MOL      0.044074
    160 H70        -2.8750   -0.4850    1.7160 hc        1 MOL      0.044074
    161 H71        -2.3880   -1.5180   -0.2050 hc        1 MOL      0.105279
    162 H72        -1.7310   -3.0060    0.6910 hc        1 MOL      0.105279
    163 N14        -5.6340   -0.5600    2.7330 n         1 MOL      0.092447
    164 C55        -6.4690    0.2790    3.5190 c3        1 MOL     -0.175311
    165 H73        -6.4590    1.2880    3.1090 h1        1 MOL      0.060541
    166 H74        -7.4880   -0.1070    3.5070 h1        1 MOL      0.060541
    167 H75        -6.1010    0.3000    4.5450 h1        1 MOL      0.060541
    168 H76        -5.6860   -0.3690    1.7420 hn        1 MOL      0.059001
    169 Ca1         2.0030   -0.0590   -0.5110 Ca        1 MOL      1.751184
    170 O24         3.5280    0.8160    1.6690 oh        1 MOL     -0.895669
    171 H77         2.9820    1.2360    2.3300 ho        1 MOL      0.420719
    172 H78         4.2160    0.3820    2.1720 ho        1 MOL      0.420719
@<TRIPOS>BOND
     1    1    2 1   
     2    1    4 1   
     3    1    5 1   
     4    1    6 1   
     5    2    3 2   
     6    2    7 1   
     7    7    8 1   
     8    7   15 1   
     9    8    9 1   
    10    8   11 1   
    11    8   16 1   
    12    9   10 2   
    13    9   19 1   
    14   11   12 1   
    15   11   17 1   
    16   11   18 1   
    17   12   13 1   
    18   12   14 1   
    19   19   20 1   
    20   19   24 1   
    21   20   21 1   
    22   20   23 1   
    23   20   25 1   
    24   21   22 2   
    25   21   29 1   
    26   23   26 1   
    27   23   27 1   
    28   23   28 1   
    29   29   30 1   
    30   29   37 1   
    31   30   31 1   
    32   30   33 1   
    33   30   38 1   
    34   31   32 2   
    35   31   41 1   
    36   33   34 1   
    37   33   39 1   
    38   33   40 1   
    39   34   35 1   
    40   34   36 1   
    41   41   42 1   
    42   41   45 1   
    43   42   43 1   
    44   42   46 1   
    45   42   47 1   
    46   43   44 2   
    47   43   48 1   
    48   48   49 1   
    49   48   56 1   
    50   49   50 1   
    51   49   52 1   
    52   49   57 1   
    53   50   51 2   
    54   50   62 1   
    55   52   53 1   
    56   52   58 1   
    57   52   59 1   
    58   53   54 1   
    59   53   55 2   
    60   54   60 1   
    61   54   61 1   
    62   62   63 1   
    63   62   66 1   
    64   63   64 1   
    65   63   67 1   
    66   63   68 1   
    67   64   65 2   
    68   64   69 1   
    69   69   70 1   
    70   69   76 1   
    71   70   71 1   
    72   70   73 1   
    73   70   77 1   
    74   71   72 2   
    75   71   83 1   
    76   73   74 1   
    77   73   75 1   
    78   73   78 1   
    79   74   80 1   
    80   74   81 1   
    81   74   82 1   
    82   75   79 1   
    83   83   84 1   
    84   83   91 1   
    85   84   85 1   
    86   84   87 1   
    87   84   92 1   
    88   85   86 2   
    89   85  102 1   
    90   87   88 1   
    91   87   89 1   
    92   87   93 1   
    93   88   90 1   
    94   88   94 1   
    95   88   95 1   
    96   89   96 1   
    97   89   97 1   
    98   89   98 1   
    99   90   99 1   
   100   90  100 1   
   101   90  101 1   
   102  102  103 1   
   103  102  110 1   
   104  103  104 1   
   105  103  106 1   
   106  103  111 1   
   107  104  105 2   
   108  104  114 1   
   109  106  107 1   
   110  106  112 1   
   111  106  113 1   
   112  107  108 1   
   113  107  109 1   
   114  114  115 1   
   115  114  125 1   
   116  115  116 1   
   117  115  118 1   
   118  115  126 1   
   119  116  117 2   
   120  116  134 1   
   121  118  119 1   
   122  118  127 1   
   123  118  128 1   
   124  119  120 ar  
   125  119  121 ar  
   126  120  122 ar  
   127  120  129 1   
   128  121  123 ar  
   129  121  130 1   
   130  122  124 ar  
   131  122  131 1   
   132  123  124 ar  
   133  123  132 1   
   134  124  133 1   
   135  134  135 1   
   136  134  140 1   
   137  135  136 1   
   138  135  138 1   
   139  135  141 1   
   140  136  137 2   
   141  136  148 1   
   142  138  139 1   
   143  138  142 1   
   144  138  143 1   
   145  139  140 1   
   146  139  144 1   
   147  139  145 1   
   148  140  146 1   
   149  140  147 1   
   150  148  149 1   
   151  148  157 1   
   152  149  150 1   
   153  149  152 1   
   154  149  158 1   
   155  150  151 2   
   156  150  163 1   
   157  152  153 1   
   158  152  159 1   
   159  152  160 1   
   160  153  154 1   
   161  153  161 1   
   162  153  162 1   
   163  154  155 1   
   164  154  156 1   
   165  163  164 1   
   166  163  168 1   
   167  164  165 1   
   168  164  166 1   
   169  164  167 1   
   170  170  171 1   
   171  170  172 1   
@<TRIPOS>SUBSTRUCTURE
     1 MOL         1 TEMP              0 ****  ****    0 ROOT
