@<TRIPOS>MOLECULE
MOL
  189   185     1     0     0
SMALL
resp


@<TRIPOS>ATOM
      1 C1         -0.9090    1.9080    6.5270 c3        1 MOL     -0.395425
      2 C2         -1.1200    1.8650    4.9710 c         1 MOL      0.724218
      3 O1         -0.1580    2.1650    4.2690 o         1 MOL     -0.606734
      4 H1         -0.3250    2.7900    6.7900 hc        1 MOL      0.096447
      5 H2         -1.8780    1.9540    7.0250 hc        1 MOL      0.096447
      6 H3         -0.3780    1.0120    6.8480 hc        1 MOL      0.096447
      7 N1         -2.3390    1.4870    4.5700 n         1 MOL     -0.573032
      8 C3         -2.6970    1.4510    3.1710 c3        1 MOL      0.056327
      9 C4         -2.8100    2.9040    2.5450 c         1 MOL      0.442577
     10 O2         -3.6660    3.7220    2.9060 o         1 MOL     -0.538871
     11 C5         -4.0220    0.6720    3.0040 c3        1 MOL     -0.090238
     12 C6         -4.2350    0.2260    1.5920 c         1 MOL      0.640736
     13 O3         -3.4240    0.5870    0.6970 o         1 MOL     -0.677034
     14 O4         -5.3250   -0.3860    1.3510 o         1 MOL     -0.677034
     15 H4         -3.1080    1.1950    5.1650 hn        1 MOL      0.333994
     16 H5         -1.9040    0.8460    2.7450 h1        1 MOL      0.042978
     17 H6         -4.9370    1.1870    3.3100 hc        1 MOL      0.036257
     18 H7         -3.9580   -0.1300    3.7370 hc        1 MOL      0.036257
     19 N2         -1.8800    3.2400    1.6550 n         1 MOL     -0.091961
     20 C7         -1.5980    4.6630    1.3080 c3        1 MOL     -0.310969
     21 C8         -2.5410    5.1030    0.1220 c         1 MOL      0.518410
     22 O5         -3.0030    6.2340    0.0810 o         1 MOL     -0.571631
     23 C9         -0.1960    4.8360    0.8350 c3        1 MOL      0.095745
     24 C10         0.2160    6.3230    0.6250 c3        1 MOL     -0.054253
     25 C11         1.7390    6.3550    0.2080 c3        1 MOL     -0.135548
     26 C12         2.1790    7.8330    0.2180 c3        1 MOL      0.069688
     27 N3          3.6340    8.0400    0.0720 n4        1 MOL     -0.375708
     28 H8         -1.2650    2.5140    1.3130 hn        1 MOL      0.248602
     29 H9         -1.7420    5.3450    2.1450 h1        1 MOL      0.173000
     30 H10        -0.0090    4.3690   -0.1270 hc        1 MOL      0.030185
     31 H11         0.5120    4.3890    1.5370 hc        1 MOL      0.030185
     32 H12         0.0280    6.9230    1.5120 hc        1 MOL      0.043221
     33 H13        -0.3130    6.6990   -0.2580 hc        1 MOL      0.043221
     34 H14         1.7800    5.8580   -0.7640 hc        1 MOL      0.054836
     35 H15         2.3070    5.6920    0.8590 hc        1 MOL      0.054836
     36 H16         1.8040    8.4190    1.0690 hx        1 MOL      0.090423
     37 H17         1.6100    8.3200   -0.5680 hx        1 MOL      0.090423
     38 H18         4.1310    7.3130    0.5730 hn        1 MOL      0.327198
     39 H19         3.9300    7.9060   -0.8860 hn        1 MOL      0.327198
     40 H20         3.9320    8.9750    0.3090 hn        1 MOL      0.327198
     41 N4         -2.9360    4.1900   -0.8030 n         1 MOL     -0.279216
     42 C13        -3.9380    4.4290   -1.8280 c3        1 MOL      0.150664
     43 C14        -5.3570    3.8150   -1.4410 c         1 MOL      0.350426
     44 O6         -6.3420    4.1640   -2.0660 o         1 MOL     -0.503285
     45 C15        -3.4150    3.9250   -3.1710 c3        1 MOL     -0.438642
     46 C16        -2.5930    2.5900   -3.1480 c         1 MOL      0.840192
     47 O7         -2.8770    1.7470   -2.2940 o         1 MOL     -0.732290
     48 O8         -1.5600    2.4700   -3.8820 o         1 MOL     -0.732290
     49 H21        -2.5380    3.2650   -0.7180 hn        1 MOL      0.146424
     50 H22        -4.1210    5.4990   -1.9540 h1        1 MOL      0.090964
     51 H23        -2.8170    4.7230   -3.6060 hc        1 MOL      0.109735
     52 H24        -4.2820    3.7160   -3.8080 hc        1 MOL      0.109735
     53 N5         -5.4650    2.8820   -0.4290 n         1 MOL     -0.042410
     54 C17        -6.7090    2.3930   -0.0470 c3        1 MOL     -0.436598
     55 C18        -7.1740    1.1870   -0.8050 c         1 MOL      0.566053
     56 O9         -8.4030    0.8900   -0.8430 o         1 MOL     -0.583217
     57 H25        -4.6140    2.6950    0.0820 hn        1 MOL      0.159571
     58 H26        -7.4540    3.1510   -0.2980 h1        1 MOL      0.173861
     59 H27        -6.6980    2.1290    1.0100 h1        1 MOL      0.173861
     60 N6         -6.3140    0.4200   -1.4180 n         1 MOL     -0.194638
     61 C19        -6.7420   -0.7130   -2.1960 c3        1 MOL     -0.012948
     62 C20        -7.2840   -1.9700   -1.4570 c         1 MOL      0.399787
     63 O10        -8.2110   -2.6840   -1.9020 o         1 MOL     -0.549486
     64 C21        -5.7770   -1.1270   -3.3440 c3        1 MOL     -0.279117
     65 C22        -4.3270   -1.1980   -2.9590 c         1 MOL      0.747960
     66 O11        -4.0130   -1.4500   -1.8050 o         1 MOL     -0.672706
     67 O12        -3.4410   -1.0110   -3.8110 o         1 MOL     -0.672706
     68 H28        -5.3410    0.6990   -1.3940 hn        1 MOL      0.214272
     69 H29        -7.5960   -0.3380   -2.7520 h1        1 MOL      0.095748
     70 H30        -5.8740   -0.4380   -4.1900 hc        1 MOL      0.084270
     71 H31        -6.1000   -2.1170   -3.6860 hc        1 MOL      0.084270
     72 N7         -6.8010   -2.2030   -0.2510 n         1 MOL     -0.097783
     73 C23        -6.9650   -3.4510    0.4060 c3        1 MOL     -0.118553
     74 C24        -5.7070   -4.2700    0.4830 c         1 MOL      0.548914
     75 O13        -5.8540   -5.4720    0.7090 o         1 MOL     -0.590294
     76 H32        -6.2640   -1.5540    0.3210 hn        1 MOL      0.207499
     77 H33        -7.6350   -4.1400   -0.1330 h1        1 MOL      0.084064
     78 H34        -7.4450   -3.2420    1.3590 h1        1 MOL      0.084064
     79 N8         -4.4660   -3.7950    0.2030 n         1 MOL     -0.316017
     80 C25        -3.1670   -4.5550    0.3260 c3        1 MOL     -0.096970
     81 C26        -2.0660   -3.6000    0.7160 c         1 MOL      0.645649
     82 O14        -2.0940   -2.3420    0.5070 o         1 MOL     -0.560136
     83 C27        -2.7390   -5.3020   -0.9760 c3        1 MOL      0.445562
     84 C28        -3.0440   -6.7380   -1.0040 c3        1 MOL     -0.455707
     85 O15        -3.2400   -4.7680   -2.2040 oh        1 MOL     -0.647672
     86 H35        -4.3500   -2.8570   -0.1370 hn        1 MOL      0.143075
     87 H36        -3.2980   -5.3690    1.0390 h1        1 MOL      0.085818
     88 H37        -1.6510   -5.2780   -1.0460 h1        1 MOL      0.038553
     89 H38        -4.1830   -4.9510   -2.2420 ho        1 MOL      0.435046
     90 H39        -2.4500   -7.2520   -0.2390 hc        1 MOL      0.111808
     91 H40        -4.0990   -6.9540   -0.8910 hc        1 MOL      0.111808
     92 H41        -2.7490   -7.1260   -1.9800 hc        1 MOL      0.111808
     93 N9         -0.9600   -4.2030    1.2110 n         1 MOL     -0.620293
     94 C29         0.2940   -3.5270    1.5130 c3        1 MOL      0.111874
     95 C30         1.3850   -4.0300    0.5350 c         1 MOL      0.408538
     96 O16         1.5960   -5.1780    0.2740 o         1 MOL     -0.551705
     97 C31         0.6880   -3.7770    2.9950 c3        1 MOL      0.125318
     98 C32        -0.2630   -2.9190    3.8420 c3        1 MOL     -0.262223
     99 C33         2.1580   -3.5120    3.1850 c3        1 MOL     -0.184860
    100 C34         0.0890   -1.3990    3.8330 c3        1 MOL      0.089556
    101 H42        -0.9680   -5.2130    1.2690 hn        1 MOL      0.320188
    102 H43         0.3270   -2.4450    1.4210 h1        1 MOL      0.082551
    103 H44         0.6050   -4.8520    3.2060 hc        1 MOL      0.016218
    104 H45        -0.2840   -3.2700    4.8700 hc        1 MOL      0.067095
    105 H46        -1.2670   -2.9910    3.4230 hc        1 MOL      0.067095
    106 H47         2.3690   -3.6230    4.2450 hc        1 MOL      0.035396
    107 H48         2.8700   -4.1380    2.6550 hc        1 MOL      0.035396
    108 H49         2.4180   -2.5290    2.8030 hc        1 MOL      0.035396
    109 H50         1.1010   -1.2330    4.2110 hc        1 MOL      0.003301
    110 H51        -0.0480   -0.8940    2.8730 hc        1 MOL      0.003301
    111 H52        -0.4120   -0.7660    4.5700 hc        1 MOL      0.003301
    112 N10         2.0780   -3.0370    0.0230 n         1 MOL      0.043160
    113 C35         3.2290   -3.1550   -0.8740 c3        1 MOL      0.003448
    114 C36         4.6210   -2.8990   -0.1880 c         1 MOL      0.291296
    115 O17         4.6670   -2.5040    0.9960 o         1 MOL     -0.354218
    116 C37         3.0910   -2.2520   -2.1220 c3        1 MOL      0.313919
    117 C38         1.9870   -2.7050   -3.0840 c3        1 MOL     -0.110704
    118 O18         2.8910   -0.8750   -1.7980 oh        1 MOL     -0.639582
    119 H53         1.7280   -2.1150    0.2620 hn        1 MOL     -0.013822
    120 H54         3.2470   -4.2030   -1.1720 h1        1 MOL      0.045500
    121 H55         4.0130   -2.3240   -2.6940 h1        1 MOL     -0.009968
    122 H56         2.0080   -0.8410   -1.4200 ho        1 MOL      0.384944
    123 H57         2.4750   -3.4370   -3.7210 hc        1 MOL      0.021005
    124 H58         1.0840   -3.0460   -2.5770 hc        1 MOL      0.021005
    125 H59         1.7780   -1.8370   -3.7050 hc        1 MOL      0.021005
    126 N11         5.7300   -3.1060   -0.8760 n         1 MOL     -0.188397
    127 C39         7.1070   -2.7630   -0.3510 c3        1 MOL     -0.145863
    128 C40         7.2910   -1.2760   -0.0440 c         1 MOL      0.367890
    129 O19         8.0380   -1.0330    0.9100 o         1 MOL     -0.461952
    130 C41         8.1340   -3.1360   -1.4170 c3        1 MOL      0.596575
    131 C42         9.5550   -3.2740   -0.8060 c3        1 MOL     -0.477286
    132 O20         7.7750   -4.2820   -2.0800 oh        1 MOL     -0.617275
    133 H60         5.7200   -3.5800   -1.7680 hn        1 MOL      0.194045
    134 H61         7.2930   -3.3380    0.5570 h1        1 MOL      0.137889
    135 H62         8.1290   -2.2910   -2.1050 h1        1 MOL     -0.146153
    136 H63         8.3310   -4.3090   -2.8560 ho        1 MOL      0.390118
    137 H64         9.7580   -2.3670   -0.2260 hc        1 MOL      0.123912
    138 H65         9.5330   -4.1500   -0.1540 hc        1 MOL      0.123912
    139 H66        10.3510   -3.3540   -1.5350 hc        1 MOL      0.123912
    140 N12         6.7230   -0.2740   -0.7880 n         1 MOL     -0.368802
    141 C43         6.6980    1.1560   -0.3740 c3        1 MOL     -0.037859
    142 C44         5.8430    1.5150    0.8200 c         1 MOL      0.460225
    143 O21         6.1060    2.5340    1.4870 o         1 MOL     -0.540246
    144 C45         6.4450    2.0840   -1.5780 c3        1 MOL     -0.093992
    145 C46         7.2930    1.7760   -2.8210 c3        1 MOL     -0.050251
    146 C47         7.2010    2.8640   -3.8900 c3        1 MOL     -0.215514
    147 C48         8.2330    2.4480   -4.9510 c3        1 MOL     -0.139244
    148 N13         9.6290    2.8600   -4.5370 n4        1 MOL     -0.250211
    149 H67         6.2200   -0.5050   -1.6320 hn        1 MOL      0.247739
    150 H68         7.6960    1.4120   -0.0280 h1        1 MOL      0.102913
    151 H69         6.6300    3.0900   -1.2240 hc        1 MOL      0.058350
    152 H70         5.3710    2.1320   -1.8050 hc        1 MOL      0.058350
    153 H71         6.9150    0.9260   -3.3830 hc        1 MOL      0.084666
    154 H72         8.3390    1.7090   -2.5460 hc        1 MOL      0.084666
    155 H73         7.4180    3.8520   -3.4870 hc        1 MOL      0.113348
    156 H74         6.1980    2.8000   -4.3030 hc        1 MOL      0.113348
    157 H75         7.9290    3.0240   -5.8330 hx        1 MOL      0.155365
    158 H76         8.1390    1.3810   -5.1130 hx        1 MOL      0.155365
    159 H77        10.0190    2.2670   -3.8200 hn        1 MOL      0.253984
    160 H78        10.2610    3.1240   -5.2800 hn        1 MOL      0.253984
    161 H79         9.5790    3.7430   -4.0500 hn        1 MOL      0.253984
    162 N14         4.7970    0.7060    1.1090 n         1 MOL     -0.190389
    163 C49         3.9030    0.8720    2.2310 c3        1 MOL     -0.072864
    164 C50         4.3820    0.1780    3.5260 c         1 MOL      0.496092
    165 O22         4.2870    0.8870    4.5330 o         1 MOL     -0.551091
    166 C51         2.5190    0.3320    1.8820 c3        1 MOL      0.069431
    167 C52         1.7320    1.2990    0.9850 c3        1 MOL      0.062379
    168 C53         0.5310    0.5920    0.2950 c         1 MOL      0.634074
    169 O23         0.6610   -0.5470   -0.2240 o         1 MOL     -0.720320
    170 O24        -0.5160    1.1820    0.2680 o         1 MOL     -0.720320
    171 H80         4.6760   -0.1190    0.5530 hn        1 MOL      0.104391
    172 H81         3.8570    1.9600    2.3830 h1        1 MOL      0.077141
    173 H82         1.9930    0.2160    2.8390 hc        1 MOL      0.046217
    174 H83         2.6280   -0.5530    1.2680 hc        1 MOL      0.046217
    175 H84         2.3960    1.7540    0.2510 hc        1 MOL     -0.036909
    176 H85         1.2550    2.1050    1.5400 hc        1 MOL     -0.036909
    177 N15         4.8560   -1.0570    3.4990 n         1 MOL     -0.155180
    178 C54         5.2390   -1.8630    4.6460 c3        1 MOL     -0.242220
    179 H86         6.2510   -1.5980    4.9530 h1        1 MOL      0.100233
    180 H87         4.5500   -1.6750    5.4680 h1        1 MOL      0.100233
    181 H88         5.2060   -2.9180    4.3760 h1        1 MOL      0.100233
    182 H89         4.9150   -1.5770    2.6360 hn        1 MOL      0.156748
    183 Ca1        -1.8780   -0.3050   -1.1600 Ca        1 MOL      1.720263
    184 O25        -1.4230   -2.6790   -2.4850 oh        1 MOL     -0.823501
    185 H90        -1.5600   -2.4700   -3.4080 ho        1 MOL      0.392056
    186 H91        -2.1120   -3.3120   -2.2770 ho        1 MOL      0.392056
    187 O26        -0.0450    0.4530   -3.0120 oh        1 MOL     -0.823501
    188 H92        -0.5930    1.1480   -3.3610 ho        1 MOL      0.392056
    189 H93         0.8460    0.7530   -3.1480 ho        1 MOL      0.392056
@<TRIPOS>BOND
     1    1    2 1   
     2    1    4 1   
     3    1    5 1   
     4    1    6 1   
     5    2    3 2   
     6    2    7 1   
     7    7    8 1   
     8    7   15 1   
     9    8    9 1   
    10    8   11 1   
    11    8   16 1   
    12    9   10 2   
    13    9   19 1   
    14   11   12 1   
    15   11   17 1   
    16   11   18 1   
    17   12   13 1   
    18   12   14 1   
    19   19   20 1   
    20   19   28 1   
    21   20   21 1   
    22   20   23 1   
    23   20   29 1   
    24   21   22 2   
    25   21   41 1   
    26   23   24 1   
    27   23   30 1   
    28   23   31 1   
    29   24   25 1   
    30   24   32 1   
    31   24   33 1   
    32   25   26 1   
    33   25   34 1   
    34   25   35 1   
    35   26   27 1   
    36   26   36 1   
    37   26   37 1   
    38   27   38 1   
    39   27   39 1   
    40   27   40 1   
    41   41   42 1   
    42   41   49 1   
    43   42   43 1   
    44   42   45 1   
    45   42   50 1   
    46   43   44 2   
    47   43   53 1   
    48   45   46 1   
    49   45   51 1   
    50   45   52 1   
    51   46   47 1   
    52   46   48 1   
    53   53   54 1   
    54   53   57 1   
    55   54   55 1   
    56   54   58 1   
    57   54   59 1   
    58   55   56 2   
    59   55   60 1   
    60   60   61 1   
    61   60   68 1   
    62   61   62 1   
    63   61   64 1   
    64   61   69 1   
    65   62   63 2   
    66   62   72 1   
    67   64   65 1   
    68   64   70 1   
    69   64   71 1   
    70   65   66 1   
    71   65   67 1   
    72   72   73 1   
    73   72   76 1   
    74   73   74 1   
    75   73   77 1   
    76   73   78 1   
    77   74   75 2   
    78   74   79 1   
    79   79   80 1   
    80   79   86 1   
    81   80   81 1   
    82   80   83 1   
    83   80   87 1   
    84   81   82 2   
    85   81   93 1   
    86   83   84 1   
    87   83   85 1   
    88   83   88 1   
    89   84   90 1   
    90   84   91 1   
    91   84   92 1   
    92   85   89 1   
    93   93   94 1   
    94   93  101 1   
    95   94   95 1   
    96   94   97 1   
    97   94  102 1   
    98   95   96 2   
    99   95  112 1   
   100   97   98 1   
   101   97   99 1   
   102   97  103 1   
   103   98  100 1   
   104   98  104 1   
   105   98  105 1   
   106   99  106 1   
   107   99  107 1   
   108   99  108 1   
   109  100  109 1   
   110  100  110 1   
   111  100  111 1   
   112  112  113 1   
   113  112  119 1   
   114  113  114 1   
   115  113  116 1   
   116  113  120 1   
   117  114  115 2   
   118  114  126 1   
   119  116  117 1   
   120  116  118 1   
   121  116  121 1   
   122  117  123 1   
   123  117  124 1   
   124  117  125 1   
   125  118  122 1   
   126  126  127 1   
   127  126  133 1   
   128  127  128 1   
   129  127  130 1   
   130  127  134 1   
   131  128  129 2   
   132  128  140 1   
   133  130  131 1   
   134  130  132 1   
   135  130  135 1   
   136  131  137 1   
   137  131  138 1   
   138  131  139 1   
   139  132  136 1   
   140  140  141 1   
   141  140  149 1   
   142  141  142 1   
   143  141  144 1   
   144  141  150 1   
   145  142  143 2   
   146  142  162 1   
   147  144  145 1   
   148  144  151 1   
   149  144  152 1   
   150  145  146 1   
   151  145  153 1   
   152  145  154 1   
   153  146  147 1   
   154  146  155 1   
   155  146  156 1   
   156  147  148 1   
   157  147  157 1   
   158  147  158 1   
   159  148  159 1   
   160  148  160 1   
   161  148  161 1   
   162  162  163 1   
   163  162  171 1   
   164  163  164 1   
   165  163  166 1   
   166  163  172 1   
   167  164  165 2   
   168  164  177 1   
   169  166  167 1   
   170  166  173 1   
   171  166  174 1   
   172  167  168 1   
   173  167  175 1   
   174  167  176 1   
   175  168  169 1   
   176  168  170 1   
   177  177  178 1   
   178  177  182 1   
   179  178  179 1   
   180  178  180 1   
   181  178  181 1   
   182  184  185 1   
   183  184  186 1   
   184  187  188 1   
   185  187  189 1   
@<TRIPOS>SUBSTRUCTURE
     1 MOL         1 TEMP              0 ****  ****    0 ROOT
