@<TRIPOS>MOLECULE
MOL
  179   176     1     0     0
SMALL
resp


@<TRIPOS>ATOM
      1 C1          1.2200    2.8730    6.7160 c3        1 MOL     -0.302375
      2 C2          1.1390    2.4600    5.2780 c         1 MOL      0.710358
      3 O1          2.1810    2.2090    4.6410 o         1 MOL     -0.610389
      4 H1          1.9420    3.6830    6.8210 hc        1 MOL      0.073836
      5 H2          0.2410    3.2150    7.0520 hc        1 MOL      0.073836
      6 H3          1.5370    2.0240    7.3220 hc        1 MOL      0.073836
      7 N1         -0.0320    2.2780    4.7800 n         1 MOL     -0.519739
      8 C3         -0.3200    2.1370    3.3520 c3        1 MOL      0.073255
      9 C4         -0.1180    3.4070    2.6100 c         1 MOL      0.601262
     10 O2         -0.7870    4.3730    3.0160 o         1 MOL     -0.553529
     11 C5         -1.7240    1.5330    3.0590 c3        1 MOL     -0.122484
     12 C6         -1.8410    1.1530    1.5880 c         1 MOL      0.547096
     13 O3         -2.9060    0.9710    1.0330 o         1 MOL     -0.690449
     14 O4         -0.8250    1.1250    0.8250 o         1 MOL     -0.690449
     15 H4         -0.8210    2.3200    5.3970 hn        1 MOL      0.294524
     16 H5          0.3760    1.3520    3.0680 h1        1 MOL      0.074702
     17 H6         -2.4520    2.2140    3.5090 hc        1 MOL      0.048781
     18 H7         -1.8040    0.5830    3.5770 hc        1 MOL      0.048781
     19 N2          0.7260    3.4090    1.5640 n         1 MOL     -0.419571
     20 C7          1.1110    4.5340    0.7290 c3        1 MOL      0.000841
     21 C8         -0.0670    5.2490    0.1090 c         1 MOL      0.463770
     22 O5          0.0260    6.4670   -0.0170 o         1 MOL     -0.575843
     23 C9          2.1180    4.0000   -0.3260 c3        1 MOL     -0.008997
     24 C10         2.5950    5.0400   -1.3590 c3        1 MOL     -0.316493
     25 C11         3.9480    4.6540   -1.9750 c3        1 MOL      0.164782
     26 C12         4.5810    5.7370   -2.8810 c3        1 MOL     -0.113172
     27 N3          5.9130    5.3330   -3.4020 n4        1 MOL     -0.265146
     28 H8          1.0460    2.4900    1.2980 hn        1 MOL      0.191505
     29 H9          1.5790    5.2780    1.3740 h1        1 MOL      0.107051
     30 H10         1.6160    3.2660   -0.9430 hc        1 MOL      0.099398
     31 H11         2.9010    3.4930    0.2360 hc        1 MOL      0.099398
     32 H12         2.7740    5.8840   -0.6950 hc        1 MOL      0.100887
     33 H13         1.8570    5.2780   -2.1380 hc        1 MOL      0.100887
     34 H14         3.7940    3.7810   -2.6120 hc        1 MOL      0.021381
     35 H15         4.6640    4.4270   -1.1750 hc        1 MOL      0.021381
     36 H16         4.7340    6.5950   -2.2190 hx        1 MOL      0.111938
     37 H17         3.8970    5.9070   -3.7110 hx        1 MOL      0.111938
     38 H18         6.3760    6.0230   -3.9750 hn        1 MOL      0.309678
     39 H19         6.5560    5.0380   -2.6800 hn        1 MOL      0.309678
     40 H20         5.7270    4.5580   -4.0180 hn        1 MOL      0.309678
     41 N4         -1.1950    4.6510   -0.2980 n         1 MOL     -0.192370
     42 C13        -2.3050    5.2440   -1.1050 c3        1 MOL      0.094131
     43 C14        -3.6080    5.1330   -0.3550 c         1 MOL      0.399092
     44 O6         -4.6610    5.7270   -0.7560 o         1 MOL     -0.535856
     45 C15        -2.3100    4.7150   -2.4980 c3        1 MOL     -0.255348
     46 C16        -2.3390    3.1720   -2.7670 c         1 MOL      0.716405
     47 O7         -2.6390    2.7380   -3.8900 o         1 MOL     -0.678048
     48 O8         -2.0970    2.4560   -1.7290 o         1 MOL     -0.678048
     49 H21        -1.1470    3.6470   -0.3650 hn        1 MOL      0.110513
     50 H22        -2.1010    6.3130   -1.1860 h1        1 MOL      0.090577
     51 H23        -1.3810    5.0920   -2.9290 hc        1 MOL      0.075509
     52 H24        -3.1380    5.2320   -2.9930 hc        1 MOL      0.075509
     53 N5         -3.6970    4.2600    0.6570 n         1 MOL     -0.257365
     54 C17        -4.9760    4.0390    1.3550 c3        1 MOL      0.004517
     55 C18        -5.8400    2.8770    0.7090 c         1 MOL      0.410219
     56 O9         -7.0270    2.7960    1.0690 o         1 MOL     -0.559819
     57 H25        -2.8940    3.7080    0.9080 hn        1 MOL      0.176760
     58 H26        -5.6790    4.8490    1.5540 h1        1 MOL      0.076074
     59 H27        -4.7370    3.6570    2.3470 h1        1 MOL      0.076074
     60 N6         -5.3410    2.1530   -0.2580 n         1 MOL     -0.183043
     61 C19        -6.1900    1.2790   -1.0640 c3        1 MOL     -0.081770
     62 C20        -6.7490    0.0570   -0.3390 c         1 MOL      0.352677
     63 O10        -7.5800   -0.6660   -0.9100 o         1 MOL     -0.490279
     64 C21        -5.6420    1.0780   -2.4950 c3        1 MOL     -0.226923
     65 C22        -4.4670    0.0930   -2.6350 c         1 MOL      0.833241
     66 N7         -4.2010   -0.3090   -3.9090 n         1 MOL     -0.863902
     67 O11        -3.8070   -0.3560   -1.7390 o         1 MOL     -0.633246
     68 H28        -4.3780    2.3280   -0.5080 hn        1 MOL      0.261047
     69 H29        -7.1200    1.8100   -1.2720 h1        1 MOL      0.140782
     70 H30        -5.3220    2.0360   -2.9000 hc        1 MOL      0.091626
     71 H31        -6.4850    0.6550   -3.0400 hc        1 MOL      0.091626
     72 H32        -4.7580    0.0520   -4.6680 hn        1 MOL      0.360779
     73 H33        -3.6730   -1.1550   -4.0360 hn        1 MOL      0.360779
     74 N8         -6.2180   -0.3250    0.8320 n         1 MOL     -0.013453
     75 C23        -6.6130   -1.4880    1.5630 c3        1 MOL     -0.447602
     76 C24        -5.5050   -2.5650    1.6910 c         1 MOL      0.678706
     77 O12        -5.8050   -3.6560    2.2340 o         1 MOL     -0.572316
     78 H34        -5.4350    0.1860    1.2030 hn        1 MOL      0.176139
     79 H35        -7.3680   -2.0740    1.0440 h1        1 MOL      0.179822
     80 H36        -6.8130   -1.2620    2.6170 h1        1 MOL      0.179822
     81 N9         -4.2930   -2.3910    1.1650 n         1 MOL     -0.553334
     82 C25        -3.2170   -3.3890    0.8130 c3        1 MOL      0.003911
     83 C26        -1.7800   -2.8350    0.8350 c         1 MOL      0.434060
     84 O13        -1.5650   -1.6630    0.4380 o         1 MOL     -0.330241
     85 C27        -3.5250   -4.0100   -0.5650 c3        1 MOL      0.105465
     86 C28        -4.9240   -4.4630   -0.7710 ca        1 MOL     -0.026493
     87 C29        -5.7280   -3.7260   -1.6680 ca        1 MOL     -0.157675
     88 C30        -5.3930   -5.6380   -0.1100 ca        1 MOL     -0.157675
     89 C31        -7.0890   -4.0990   -1.7680 ca        1 MOL     -0.243115
     90 C32        -6.7590   -5.9730   -0.3190 ca        1 MOL     -0.243115
     91 C33        -7.6320   -5.1750   -1.1370 ca        1 MOL      0.364071
     92 O14        -8.9950   -5.4480   -1.3590 oh        1 MOL     -0.546899
     93 H37        -4.0890   -1.4500    0.8400 hn        1 MOL      0.327018
     94 H38        -3.2530   -4.1620    1.5920 h1        1 MOL      0.101853
     95 H39        -2.8160   -4.8010   -0.8100 hc        1 MOL     -0.023658
     96 H40        -3.4530   -3.2470   -1.3390 hc        1 MOL     -0.023658
     97 H41        -5.3880   -2.8700   -2.2290 ha        1 MOL      0.146856
     98 H42        -4.7810   -6.1880    0.5940 ha        1 MOL      0.146856
     99 H43        -7.7270   -3.4600   -2.3490 ha        1 MOL      0.138809
    100 H44        -7.2380   -6.7740    0.2300 ha        1 MOL      0.138809
    101 H45        -9.4410   -6.0500   -0.7670 ho        1 MOL      0.390962
    102 N10        -0.8720   -3.5540    1.4720 n         1 MOL     -0.496033
    103 C34         0.5290   -3.1290    1.5970 c3        1 MOL      0.110396
    104 C35         1.5220   -4.0420    0.8540 c         1 MOL      0.447658
    105 O15         1.4190   -5.2510    0.8860 o         1 MOL     -0.549266
    106 C36         1.0030   -2.9650    3.0040 c3        1 MOL      0.229869
    107 C37        -0.1680   -2.2850    3.7870 c3        1 MOL      0.334090
    108 C38         2.3290   -2.1210    3.1010 c3        1 MOL     -0.660953
    109 C39         0.0710   -1.9360    5.2570 c3        1 MOL     -0.298465
    110 H46        -1.1070   -4.4360    1.9040 hn        1 MOL      0.303556
    111 H47         0.5760   -2.1530    1.1160 h1        1 MOL     -0.002711
    112 H48         1.0830   -3.9250    3.5200 hc        1 MOL     -0.023677
    113 H49        -0.8610   -3.1300    3.8020 hc        1 MOL     -0.084751
    114 H50        -0.5800   -1.4680    3.1860 hc        1 MOL     -0.084751
    115 H51         3.0850   -2.5220    2.4220 hc        1 MOL      0.161039
    116 H52         2.0530   -1.1530    2.6720 hc        1 MOL      0.161039
    117 H53         2.6160   -2.0010    4.1490 hc        1 MOL      0.161039
    118 H54        -0.8180   -1.5060    5.7130 hc        1 MOL      0.061838
    119 H55         0.3850   -2.8310    5.8040 hc        1 MOL      0.061838
    120 H56         0.8390   -1.1730    5.3550 hc        1 MOL      0.061838
    121 N11         2.4830   -3.4210    0.1490 n         1 MOL     -0.217695
    122 C40         3.5580   -4.0120   -0.6480 c3        1 MOL      0.078066
    123 C41         4.9620   -3.6100   -0.2090 c         1 MOL      0.416675
    124 O16         5.1140   -2.9290    0.8320 o         1 MOL     -0.440479
    125 C42         3.3550   -3.4630   -2.0150 c3        1 MOL      0.008960
    126 O17         4.2120   -4.1150   -2.9370 oh        1 MOL     -0.626404
    127 H57         2.5130   -2.4110    0.1690 hn        1 MOL      0.169140
    128 H58         3.4420   -5.0940   -0.5850 h1        1 MOL      0.058871
    129 H59         3.5500   -2.3940   -1.9570 h1        1 MOL      0.105835
    130 H60         2.3280   -3.5790   -2.3740 h1        1 MOL      0.105835
    131 H61         3.7750   -4.9260   -3.2260 ho        1 MOL      0.416610
    132 N12         5.9420   -4.2330   -0.7940 n         1 MOL     -0.421316
    133 C43         7.2450   -4.1320   -0.2260 c3        1 MOL      0.243022
    134 C44         7.7630   -2.7290   -0.4830 c         1 MOL      0.373424
    135 O18         8.3000   -2.1290    0.4520 o         1 MOL     -0.492893
    136 C45         8.2080   -5.2080   -0.8450 c3        1 MOL     -0.342587
    137 H62         5.6830   -4.6860   -1.6560 hn        1 MOL      0.269661
    138 H63         7.3510   -4.2840    0.8470 h1        1 MOL      0.065324
    139 H64         8.2980   -5.1480   -1.9320 hc        1 MOL      0.098963
    140 H65         9.2020   -5.0030   -0.4530 hc        1 MOL      0.098963
    141 H66         7.8440   -6.2040   -0.5800 hc        1 MOL      0.098963
    142 N13         7.5260   -2.1410   -1.6750 n         1 MOL     -0.266244
    143 C46         8.0290   -0.8050   -2.0200 c3        1 MOL     -0.004922
    144 C47         7.3010    0.2480   -1.1520 c         1 MOL      0.353121
    145 O19         7.8560    1.3670   -1.0210 o         1 MOL     -0.523635
    146 C48         7.8970   -0.5510   -3.5450 c3        1 MOL     -0.316143
    147 H67         7.2810   -2.7100   -2.4720 hn        1 MOL      0.243195
    148 H68         9.0490   -0.8910   -1.6390 h1        1 MOL      0.119020
    149 H69         8.1940    0.4630   -3.8290 hc        1 MOL      0.100715
    150 H70         8.2630   -1.3940   -4.1400 hc        1 MOL      0.100715
    151 H71         6.8430   -0.5550   -3.8080 hc        1 MOL      0.100715
    152 N14         6.0990   -0.0210   -0.6880 n         1 MOL     -0.039228
    153 C49         5.2410    0.7860    0.1100 c3        1 MOL     -0.115657
    154 C50         5.6340    0.7870    1.5890 c         1 MOL      0.536703
    155 O20         5.6400    1.7990    2.2450 o         1 MOL     -0.527306
    156 C51         3.7280    0.4850   -0.1310 c3        1 MOL     -0.007770
    157 C52         3.3360    0.5390   -1.6110 c3        1 MOL     -0.040317
    158 C53         1.8630    0.2140   -1.7320 c         1 MOL      0.678715
    159 O21         1.3390   -0.7120   -1.0950 o         1 MOL     -0.759100
    160 O22         1.0990    0.9190   -2.4970 o         1 MOL     -0.759100
    161 H72         5.7170   -0.8790   -1.0650 hn        1 MOL      0.114264
    162 H73         5.4390    1.7750   -0.2950 h1        1 MOL     -0.013752
    163 H74         3.1650    1.1830    0.4880 hc        1 MOL      0.042301
    164 H75         3.5510   -0.5060    0.2820 hc        1 MOL      0.042301
    165 H76         3.8920   -0.0630   -2.3310 hc        1 MOL     -0.011790
    166 H77         3.5300    1.5640   -1.9370 hc        1 MOL     -0.011790
    167 N15         5.9800   -0.4140    2.0440 n         1 MOL     -0.184508
    168 C54         6.6700   -0.5380    3.3590 c3        1 MOL     -0.278136
    169 H78         7.2690    0.3540    3.5410 h1        1 MOL      0.114942
    170 H79         5.9280   -0.6440    4.1510 h1        1 MOL      0.114942
    171 H80         7.3180   -1.4140    3.3480 h1        1 MOL      0.114942
    172 H81         5.8520   -1.2720    1.5240 hn        1 MOL      0.192286
    173 Ca1        -1.1730    0.1230   -1.5340 Ca        1 MOL      1.699431
    174 O23        -1.2290    0.5160   -4.1260 oh        1 MOL     -0.830272
    175 H82        -0.9580    0.3380   -5.0330 ho        1 MOL      0.399860
    176 H83        -1.8510    1.2430   -4.2050 ho        1 MOL      0.399860
    177 O24        -1.2570   -2.2620   -2.6270 oh        1 MOL     -0.830272
    178 H84        -1.7750   -2.3190   -3.4280 ho        1 MOL      0.399860
    179 H85        -0.9660   -3.1510   -2.4630 ho        1 MOL      0.399860
@<TRIPOS>BOND
     1    1    2 1   
     2    1    4 1   
     3    1    5 1   
     4    1    6 1   
     5    2    3 2   
     6    2    7 1   
     7    7    8 1   
     8    7   15 1   
     9    8    9 1   
    10    8   11 1   
    11    8   16 1   
    12    9   10 2   
    13    9   19 1   
    14   11   12 1   
    15   11   17 1   
    16   11   18 1   
    17   12   13 1   
    18   12   14 1   
    19   19   20 1   
    20   19   28 1   
    21   20   21 1   
    22   20   23 1   
    23   20   29 1   
    24   21   22 2   
    25   21   41 1   
    26   23   24 1   
    27   23   30 1   
    28   23   31 1   
    29   24   25 1   
    30   24   32 1   
    31   24   33 1   
    32   25   26 1   
    33   25   34 1   
    34   25   35 1   
    35   26   27 1   
    36   26   36 1   
    37   26   37 1   
    38   27   38 1   
    39   27   39 1   
    40   27   40 1   
    41   41   42 1   
    42   41   49 1   
    43   42   43 1   
    44   42   45 1   
    45   42   50 1   
    46   43   44 2   
    47   43   53 1   
    48   45   46 1   
    49   45   51 1   
    50   45   52 1   
    51   46   47 1   
    52   46   48 1   
    53   53   54 1   
    54   53   57 1   
    55   54   55 1   
    56   54   58 1   
    57   54   59 1   
    58   55   56 2   
    59   55   60 1   
    60   60   61 1   
    61   60   68 1   
    62   61   62 1   
    63   61   64 1   
    64   61   69 1   
    65   62   63 2   
    66   62   74 1   
    67   64   65 1   
    68   64   70 1   
    69   64   71 1   
    70   65   66 1   
    71   65   67 2   
    72   66   72 1   
    73   66   73 1   
    74   74   75 1   
    75   74   78 1   
    76   75   76 1   
    77   75   79 1   
    78   75   80 1   
    79   76   77 2   
    80   76   81 1   
    81   81   82 1   
    82   81   93 1   
    83   82   83 1   
    84   82   85 1   
    85   82   94 1   
    86   83   84 2   
    87   83  102 1   
    88   85   86 1   
    89   85   95 1   
    90   85   96 1   
    91   86   87 ar  
    92   86   88 ar  
    93   87   89 ar  
    94   87   97 1   
    95   88   90 ar  
    96   88   98 1   
    97   89   91 ar  
    98   89   99 1   
    99   90   91 ar  
   100   90  100 1   
   101   91   92 1   
   102   92  101 1   
   103  102  103 1   
   104  102  110 1   
   105  103  104 1   
   106  103  106 1   
   107  103  111 1   
   108  104  105 2   
   109  104  121 1   
   110  106  107 1   
   111  106  108 1   
   112  106  112 1   
   113  107  109 1   
   114  107  113 1   
   115  107  114 1   
   116  108  115 1   
   117  108  116 1   
   118  108  117 1   
   119  109  118 1   
   120  109  119 1   
   121  109  120 1   
   122  121  122 1   
   123  121  127 1   
   124  122  123 1   
   125  122  125 1   
   126  122  128 1   
   127  123  124 2   
   128  123  132 1   
   129  125  126 1   
   130  125  129 1   
   131  125  130 1   
   132  126  131 1   
   133  132  133 1   
   134  132  137 1   
   135  133  134 1   
   136  133  136 1   
   137  133  138 1   
   138  134  135 2   
   139  134  142 1   
   140  136  139 1   
   141  136  140 1   
   142  136  141 1   
   143  142  143 1   
   144  142  147 1   
   145  143  144 1   
   146  143  146 1   
   147  143  148 1   
   148  144  145 2   
   149  144  152 1   
   150  146  149 1   
   151  146  150 1   
   152  146  151 1   
   153  152  153 1   
   154  152  161 1   
   155  153  154 1   
   156  153  156 1   
   157  153  162 1   
   158  154  155 2   
   159  154  167 1   
   160  156  157 1   
   161  156  163 1   
   162  156  164 1   
   163  157  158 1   
   164  157  165 1   
   165  157  166 1   
   166  158  159 1   
   167  158  160 1   
   168  167  168 1   
   169  167  172 1   
   170  168  169 1   
   171  168  170 1   
   172  168  171 1   
   173  174  175 1   
   174  174  176 1   
   175  177  178 1   
   176  177  179 1   
@<TRIPOS>SUBSTRUCTURE
     1 MOL         1 TEMP              0 ****  ****    0 ROOT
