@<TRIPOS>MOLECULE
MOL
  175   173     1     0     0
SMALL
resp


@<TRIPOS>ATOM
      1 C1          0.0950    4.0340    5.3600 c3        1 MOL     -0.353385
      2 C2         -0.5190    4.0660    3.8970 c         1 MOL      0.687166
      3 O1          0.2390    4.1010    2.9060 o         1 MOL     -0.595331
      4 H1         -0.5420    3.4330    6.0080 hc        1 MOL      0.083749
      5 H2          1.0930    3.5970    5.3260 hc        1 MOL      0.083749
      6 H3          0.1560    5.0490    5.7510 hc        1 MOL      0.083749
      7 N1         -1.8070    3.9240    3.8160 n         1 MOL     -0.631281
      8 C3         -2.5500    3.5620    2.5770 c3        1 MOL      0.415683
      9 C4         -2.7710    4.7100    1.5510 c         1 MOL      0.373643
     10 O2         -3.5520    5.6330    1.7130 o         1 MOL     -0.553247
     11 C5         -3.9000    2.9240    2.9850 c3        1 MOL     -0.433205
     12 C6         -4.3990    1.9450    1.9080 c         1 MOL      0.852518
     13 O3         -3.6610    1.7390    0.9420 o         1 MOL     -0.698958
     14 O4         -5.4480    1.3030    2.1840 o         1 MOL     -0.698958
     15 H4         -2.4080    3.9080    4.6410 hn        1 MOL      0.313710
     16 H5         -1.9390    2.8250    2.0670 h1        1 MOL     -0.026225
     17 H6         -4.6440    3.6980    3.1940 hc        1 MOL      0.084972
     18 H7         -3.7440    2.4010    3.9270 hc        1 MOL      0.084972
     19 N2         -1.8230    4.6320    0.5540 n         1 MOL     -0.190316
     20 C7         -1.7240    5.5310   -0.5640 c3        1 MOL      0.088057
     21 C8         -2.6720    5.0990   -1.7370 c         1 MOL      0.704789
     22 O5         -2.7490    5.8460   -2.6610 o         1 MOL     -0.595695
     23 C9         -0.2730    5.6740   -1.0170 c3        1 MOL     -0.482033
     24 H8         -1.2530    3.7960    0.5310 hn        1 MOL      0.210574
     25 H9         -2.1080    6.4770   -0.2010 h1        1 MOL      0.051478
     26 H10         0.2130    4.6940   -1.1080 hc        1 MOL      0.128104
     27 H11        -0.3620    6.0420   -2.0380 hc        1 MOL      0.128104
     28 H12         0.0850    6.3750   -0.2590 hc        1 MOL      0.128104
     29 N3         -3.5140    4.0480   -1.5780 n         1 MOL     -0.638555
     30 C10        -4.5140    3.6330   -2.5890 c3        1 MOL      0.279396
     31 C11        -5.7970    2.8440   -2.1290 c         1 MOL      0.347046
     32 O6         -6.8660    3.0780   -2.7880 o         1 MOL     -0.563610
     33 C12        -3.8720    2.8330   -3.6770 c3        1 MOL     -0.331945
     34 C13        -2.9910    1.6840   -3.1520 c         1 MOL      0.756704
     35 O7         -1.9220    1.4570   -3.8110 o         1 MOL     -0.662489
     36 O8         -3.3300    1.0150   -2.1240 o         1 MOL     -0.662489
     37 H13        -3.3460    3.4640   -0.7710 hn        1 MOL      0.267540
     38 H14        -4.9080    4.5550   -3.0100 h1        1 MOL      0.042334
     39 H15        -3.2020    3.4780   -4.2490 hc        1 MOL      0.070596
     40 H16        -4.6520    2.3850   -4.2790 hc        1 MOL      0.070596
     41 N4         -5.7560    2.1280   -1.0080 n         1 MOL     -0.113557
     42 C14        -6.9170    1.3710   -0.5910 c3        1 MOL     -0.195312
     43 C15        -6.9940   -0.0590   -1.1750 c         1 MOL      0.514639
     44 O9         -8.0680   -0.6290   -1.1190 o         1 MOL     -0.615165
     45 H17        -4.8520    1.9510   -0.5810 hn        1 MOL      0.054417
     46 H18        -7.8140    1.9500   -0.8240 h1        1 MOL      0.115310
     47 H19        -6.8970    1.3090    0.5000 h1        1 MOL      0.115310
     48 N5         -5.9280   -0.6340   -1.7220 n         1 MOL     -0.160660
     49 C16        -6.0350   -1.9530   -2.3920 c3        1 MOL     -0.019285
     50 C17        -6.0720   -3.1020   -1.3530 c         1 MOL      0.432546
     51 O10        -6.2860   -4.2510   -1.7460 o         1 MOL     -0.562996
     52 C18        -4.8970   -2.1140   -3.3910 c3        1 MOL     -0.196560
     53 C19        -3.5340   -2.3090   -2.7780 c         1 MOL      0.584696
     54 N6         -2.6290   -2.9740   -3.4780 n         1 MOL     -0.641539
     55 O11        -3.2080   -2.0130   -1.6830 o         1 MOL     -0.585732
     56 H20        -5.0980   -0.0620   -1.7830 hn        1 MOL      0.152995
     57 H21        -6.9190   -1.9930   -3.0280 h1        1 MOL      0.097264
     58 H22        -4.8740   -1.2800   -4.0930 hc        1 MOL      0.065201
     59 H23        -5.0820   -3.0660   -3.8930 hc        1 MOL      0.065201
     60 H24        -2.7110   -3.0640   -4.4800 hn        1 MOL      0.313592
     61 H25        -1.7310   -3.0540   -3.0260 hn        1 MOL      0.313592
     62 N7         -5.9060   -2.8190   -0.0710 n         1 MOL     -0.041477
     63 C20        -6.2400   -3.7120    1.0370 c3        1 MOL     -0.360906
     64 C21        -5.0780   -4.3970    1.6740 c         1 MOL      0.656961
     65 O12        -5.1950   -5.3430    2.4020 o         1 MOL     -0.586937
     66 H26        -5.7620   -1.8430    0.1240 hn        1 MOL      0.178100
     67 H27        -6.8670   -4.4930    0.5890 h1        1 MOL      0.135115
     68 H28        -6.7840   -3.1480    1.7960 h1        1 MOL      0.135115
     69 N8         -3.8740   -4.0050    1.2200 n         1 MOL     -0.533946
     70 C22        -2.5220   -4.5560    1.5010 c3        1 MOL      0.083745
     71 C23        -1.5550   -3.3360    1.6490 c         1 MOL      0.436935
     72 O13        -1.7680   -2.3860    0.8550 o         1 MOL     -0.456381
     73 C24        -2.1560   -5.4330    0.3090 c3        1 MOL      0.405730
     74 C25        -2.6330   -6.8630    0.5190 c3        1 MOL     -0.502075
     75 O14        -2.7490   -5.1780   -0.9120 oh        1 MOL     -0.599251
     76 H29        -3.9130   -3.3030    0.4970 hn        1 MOL      0.307823
     77 H30        -2.5210   -5.1910    2.3870 h1        1 MOL      0.061947
     78 H31        -1.0670   -5.4540    0.1960 h1        1 MOL      0.062515
     79 H32        -3.6820   -5.3920   -0.8770 ho        1 MOL      0.401068
     80 H33        -2.0870   -7.3840    1.3140 hc        1 MOL      0.110048
     81 H34        -3.6950   -6.9600    0.7720 hc        1 MOL      0.110048
     82 H35        -2.4520   -7.4970   -0.3360 hc        1 MOL      0.110048
     83 N9         -0.4830   -3.5490    2.4160 n         1 MOL     -0.603178
     84 C26         0.7720   -2.7690    2.2620 c3        1 MOL     -0.051246
     85 C27         1.3550   -3.1530    0.9280 c         1 MOL      0.628210
     86 O15         1.5960   -4.3250    0.7120 o         1 MOL     -0.596979
     87 C28         1.7240   -2.9140    3.4570 c3        1 MOL      0.205409
     88 C29         1.1580   -2.0890    4.6290 c3        1 MOL      0.096433
     89 C30         3.1470   -2.4950    3.0570 c3        1 MOL     -0.412687
     90 C31         1.9030   -2.3760    5.9120 c3        1 MOL     -0.161819
     91 H36        -0.3330   -4.5070    2.7110 hn        1 MOL      0.311595
     92 H37         0.5830   -1.7010    2.1400 h1        1 MOL      0.178652
     93 H38         1.7970   -3.9370    3.8260 hc        1 MOL     -0.000627
     94 H39         0.1310   -2.3880    4.8410 hc        1 MOL     -0.018642
     95 H40         1.1940   -1.0670    4.2530 hc        1 MOL     -0.018642
     96 H41         3.4570   -3.1360    2.2430 hc        1 MOL      0.094929
     97 H42         3.1490   -1.4690    2.6890 hc        1 MOL      0.094929
     98 H43         3.8670   -2.4300    3.8820 hc        1 MOL      0.094929
     99 H44         1.7940   -3.4460    6.0820 hc        1 MOL      0.030988
    100 H45         2.9350   -2.0280    5.8990 hc        1 MOL      0.030988
    101 H46         1.4460   -1.8870    6.7780 hc        1 MOL      0.030988
    102 N10         1.7510   -2.1390    0.1530 n         1 MOL     -0.176442
    103 C32         2.6570   -2.1920   -0.9590 c3        1 MOL      0.064609
    104 C33         4.0950   -1.7000   -0.6550 c         1 MOL      0.406045
    105 O16         4.1890   -0.8330    0.3040 o         1 MOL     -0.324374
    106 C34         2.0450   -1.4820   -2.1570 c3        1 MOL     -0.334526
    107 C35         0.5380   -1.6790   -2.4200 c         1 MOL      0.805079
    108 O17         0.1760   -2.6420   -3.2300 o         1 MOL     -0.685385
    109 O18        -0.2770   -0.7930   -2.0680 o         1 MOL     -0.685385
    110 H47         1.5340   -1.1780    0.3860 hn        1 MOL     -0.156773
    111 H48         2.6880   -3.2380   -1.2560 h1        1 MOL      0.059479
    112 H49         2.6030   -1.6680   -3.0720 hc        1 MOL      0.087352
    113 H50         2.2370   -0.4560   -1.8610 hc        1 MOL      0.087352
    114 N11         5.1520   -1.9020   -1.4830 n         1 MOL     -0.603672
    115 C36         6.5800   -1.3940   -1.2480 c3        1 MOL      0.396690
    116 C37         6.7010    0.1130   -0.9310 c         1 MOL      0.312626
    117 O19         7.3290    0.4520    0.0500 o         1 MOL     -0.492742
    118 C38         7.5020   -2.0440   -2.3750 c3        1 MOL     -0.266620
    119 C39         9.0080   -1.7980   -2.1180 ca        1 MOL      0.141155
    120 C40         9.6620   -0.8560   -2.9210 ca        1 MOL     -0.196383
    121 C41         9.7350   -2.4530   -1.0840 ca        1 MOL     -0.196383
    122 C42        11.1000   -0.6910   -2.8010 ca        1 MOL     -0.084826
    123 C43        11.1610   -2.1540   -0.8740 ca        1 MOL     -0.084826
    124 C44        11.8650   -1.3030   -1.7320 ca        1 MOL     -0.165856
    125 H51         5.0020   -2.5040   -2.2770 hn        1 MOL      0.332061
    126 H52         6.9760   -1.9290   -0.3780 h1        1 MOL      0.023423
    127 H53         7.1300   -1.5930   -3.2960 hc        1 MOL      0.082286
    128 H54         7.4770   -3.1290   -2.3530 hc        1 MOL      0.082286
    129 H55         9.0990   -0.2310   -3.5940 ha        1 MOL      0.132457
    130 H56         9.2220   -3.2200   -0.5160 ha        1 MOL      0.132457
    131 H57        11.5340    0.0220   -3.4830 ha        1 MOL      0.104893
    132 H58        11.6330   -2.6440   -0.0300 ha        1 MOL      0.104893
    133 H59        12.8770   -1.0090   -1.5230 ha        1 MOL      0.133877
    134 N12         6.1080    1.0620   -1.7510 n         1 MOL     -0.129093
    135 C45         6.1080    2.5070   -1.4340 c3        1 MOL     -0.014705
    136 C46         5.4540    2.9350   -0.1210 c         1 MOL      0.404724
    137 O20         5.5430    4.0660    0.2590 o         1 MOL     -0.523158
    138 C47         5.4050    3.1870   -2.5760 c3        1 MOL     -0.225411
    139 C48         4.5900    2.0720   -3.2350 c3        1 MOL      0.185903
    140 C49         5.2770    0.8020   -2.9680 c3        1 MOL     -0.059777
    141 H60         7.1020    2.9280   -1.3010 h1        1 MOL      0.084948
    142 H61         4.6690    3.9200   -2.2590 hc        1 MOL      0.075401
    143 H62         6.1310    3.5790   -3.2840 hc        1 MOL      0.075401
    144 H63         3.6120    2.1090   -2.7500 hc        1 MOL     -0.008551
    145 H64         4.4740    2.2570   -4.3030 hc        1 MOL     -0.008551
    146 H65         4.4430    0.1260   -2.8050 h1        1 MOL      0.027659
    147 H66         5.9790    0.4940   -3.7390 h1        1 MOL      0.027659
    148 N13         4.6490    2.0330    0.4810 n         1 MOL     -0.137938
    149 C50         3.8840    2.2660    1.6820 c3        1 MOL      0.014061
    150 C51         4.5570    1.6820    2.9170 c         1 MOL      0.395259
    151 O21         4.7080    2.2800    3.9440 o         1 MOL     -0.532435
    152 C52         2.5000    1.6900    1.5490 c3        1 MOL     -0.053526
    153 C53         1.7360    2.1550    0.3180 c3        1 MOL      0.079854
    154 C54         0.3490    1.5360    0.2740 c         1 MOL      0.552435
    155 O22        -0.6610    2.1690   -0.1920 o         1 MOL     -0.659383
    156 O23         0.1800    0.3740    0.8000 o         1 MOL     -0.659383
    157 H67         4.4380    1.1780   -0.0260 hn        1 MOL      0.212073
    158 H68         3.7680    3.3250    1.9100 h1        1 MOL      0.071836
    159 H69         1.9350    2.0960    2.3770 hc        1 MOL      0.034094
    160 H70         2.4860    0.5960    1.5620 hc        1 MOL      0.034094
    161 H71         2.2070    1.7890   -0.5940 hc        1 MOL      0.028174
    162 H72         1.7640    3.2290    0.1430 hc        1 MOL      0.028174
    163 N14         5.1990    0.5110    2.7200 n         1 MOL     -0.050138
    164 C55         6.2240    0.0310    3.7410 c3        1 MOL     -0.229525
    165 H73         6.9190    0.8400    3.9660 h1        1 MOL      0.090635
    166 H74         5.7140   -0.2720    4.6550 h1        1 MOL      0.090635
    167 H75         6.7750   -0.8160    3.3330 h1        1 MOL      0.090635
    168 H76         5.0300    0.0960    1.8140 hn        1 MOL      0.027169
    169 Ca1        -2.1240   -0.0120   -0.2010 Ca        1 MOL      1.642066
    170 O24        -4.3020   -0.9120    1.2750 oh        1 MOL     -0.735387
    171 H77        -3.7130   -1.1860    1.9620 ho        1 MOL      0.363153
    172 H78        -4.8520   -0.2320    1.6710 ho        1 MOL      0.363153
    173 O25        -2.0020   -0.4110    2.8970 oh        1 MOL     -0.735387
    174 H79        -1.9080   -0.3350    3.8440 ho        1 MOL      0.363153
    175 H80        -1.1140   -0.5390    2.5690 ho        1 MOL      0.363153
@<TRIPOS>BOND
     1    1    2 1   
     2    1    4 1   
     3    1    5 1   
     4    1    6 1   
     5    2    3 2   
     6    2    7 1   
     7    7    8 1   
     8    7   15 1   
     9    8    9 1   
    10    8   11 1   
    11    8   16 1   
    12    9   10 2   
    13    9   19 1   
    14   11   12 1   
    15   11   17 1   
    16   11   18 1   
    17   12   13 1   
    18   12   14 1   
    19   19   20 1   
    20   19   24 1   
    21   20   21 1   
    22   20   23 1   
    23   20   25 1   
    24   21   22 2   
    25   21   29 1   
    26   23   26 1   
    27   23   27 1   
    28   23   28 1   
    29   29   30 1   
    30   29   37 1   
    31   30   31 1   
    32   30   33 1   
    33   30   38 1   
    34   31   32 2   
    35   31   41 1   
    36   33   34 1   
    37   33   39 1   
    38   33   40 1   
    39   34   35 1   
    40   34   36 1   
    41   41   42 1   
    42   41   45 1   
    43   42   43 1   
    44   42   46 1   
    45   42   47 1   
    46   43   44 2   
    47   43   48 1   
    48   48   49 1   
    49   48   56 1   
    50   49   50 1   
    51   49   52 1   
    52   49   57 1   
    53   50   51 2   
    54   50   62 1   
    55   52   53 1   
    56   52   58 1   
    57   52   59 1   
    58   53   54 1   
    59   53   55 2   
    60   54   60 1   
    61   54   61 1   
    62   62   63 1   
    63   62   66 1   
    64   63   64 1   
    65   63   67 1   
    66   63   68 1   
    67   64   65 2   
    68   64   69 1   
    69   69   70 1   
    70   69   76 1   
    71   70   71 1   
    72   70   73 1   
    73   70   77 1   
    74   71   72 2   
    75   71   83 1   
    76   73   74 1   
    77   73   75 1   
    78   73   78 1   
    79   74   80 1   
    80   74   81 1   
    81   74   82 1   
    82   75   79 1   
    83   83   84 1   
    84   83   91 1   
    85   84   85 1   
    86   84   87 1   
    87   84   92 1   
    88   85   86 2   
    89   85  102 1   
    90   87   88 1   
    91   87   89 1   
    92   87   93 1   
    93   88   90 1   
    94   88   94 1   
    95   88   95 1   
    96   89   96 1   
    97   89   97 1   
    98   89   98 1   
    99   90   99 1   
   100   90  100 1   
   101   90  101 1   
   102  102  103 1   
   103  102  110 1   
   104  103  104 1   
   105  103  106 1   
   106  103  111 1   
   107  104  105 2   
   108  104  114 1   
   109  106  107 1   
   110  106  112 1   
   111  106  113 1   
   112  107  108 1   
   113  107  109 1   
   114  114  115 1   
   115  114  125 1   
   116  115  116 1   
   117  115  118 1   
   118  115  126 1   
   119  116  117 2   
   120  116  134 1   
   121  118  119 1   
   122  118  127 1   
   123  118  128 1   
   124  119  120 ar  
   125  119  121 ar  
   126  120  122 ar  
   127  120  129 1   
   128  121  123 ar  
   129  121  130 1   
   130  122  124 ar  
   131  122  131 1   
   132  123  124 ar  
   133  123  132 1   
   134  124  133 1   
   135  134  135 1   
   136  134  140 1   
   137  135  136 1   
   138  135  138 1   
   139  135  141 1   
   140  136  137 2   
   141  136  148 1   
   142  138  139 1   
   143  138  142 1   
   144  138  143 1   
   145  139  140 1   
   146  139  144 1   
   147  139  145 1   
   148  140  146 1   
   149  140  147 1   
   150  148  149 1   
   151  148  157 1   
   152  149  150 1   
   153  149  152 1   
   154  149  158 1   
   155  150  151 2   
   156  150  163 1   
   157  152  153 1   
   158  152  159 1   
   159  152  160 1   
   160  153  154 1   
   161  153  161 1   
   162  153  162 1   
   163  154  155 1   
   164  154  156 1   
   165  163  164 1   
   166  163  168 1   
   167  164  165 1   
   168  164  166 1   
   169  164  167 1   
   170  170  171 1   
   171  170  172 1   
   172  173  174 1   
   173  173  175 1   
@<TRIPOS>SUBSTRUCTURE
     1 MOL         1 TEMP              0 ****  ****    0 ROOT
