@<TRIPOS>MOLECULE
MOL
  183   181     1     0     0
SMALL
resp


@<TRIPOS>ATOM
      1 C1         -0.4530    0.4740    6.5430 c3        1 MOL     -0.358489
      2 C2         -0.6420    0.7800    5.0320 c         1 MOL      0.725933
      3 O1          0.1600    1.4170    4.3880 o         1 MOL     -0.573346
      4 H1          0.5500    0.0800    6.7090 hc        1 MOL      0.079449
      5 H2         -0.5840    1.3900    7.1190 hc        1 MOL      0.079449
      6 H3         -1.1900   -0.2640    6.8590 hc        1 MOL      0.079449
      7 N1         -1.7450    0.3960    4.4940 n         1 MOL     -0.600733
      8 C3         -2.3760    0.8410    3.3000 c3        1 MOL      0.395053
      9 C4         -2.7090    2.3300    3.2570 c         1 MOL      0.441008
     10 O2         -3.3860    2.8170    4.1370 o         1 MOL     -0.578178
     11 C5         -3.5900   -0.0750    3.0800 c3        1 MOL     -0.432272
     12 C6         -4.4200    0.1740    1.8320 c         1 MOL      0.841233
     13 O3         -5.6570    0.0260    1.9370 o         1 MOL     -0.658373
     14 O4         -3.8810    0.6890    0.8030 o         1 MOL     -0.658373
     15 H4         -2.2480   -0.2980    5.0170 hn        1 MOL      0.287891
     16 H5         -1.6520    0.5670    2.5320 h1        1 MOL     -0.004850
     17 H6         -4.2520    0.1670    3.9100 hc        1 MOL      0.060408
     18 H7         -3.2960   -1.1100    2.9160 hc        1 MOL      0.060408
     19 N2         -2.2980    3.0030    2.1600 n         1 MOL      0.011188
     20 C7         -2.4770    4.4430    1.9950 c3        1 MOL     -0.236886
     21 C8         -3.6210    4.8330    0.9850 c         1 MOL      0.610978
     22 O5         -3.9830    6.0010    0.8620 o         1 MOL     -0.566283
     23 C9         -1.0780    5.0610    1.6520 c3        1 MOL      0.146609
     24 C10        -0.7720    4.9280    0.1250 c3        1 MOL     -0.113292
     25 C11         0.0920    4.4220    2.5020 c3        1 MOL     -0.225313
     26 C12         0.5200    5.6350   -0.2700 c3        1 MOL     -0.192603
     27 H8         -1.5770    2.6300    1.5650 hn        1 MOL      0.102023
     28 H9         -2.7360    4.9030    2.9590 h1        1 MOL      0.081385
     29 H10        -1.1970    6.1130    1.9120 hc        1 MOL     -0.014137
     30 H11        -1.6250    5.3300   -0.4160 hc        1 MOL      0.092281
     31 H12        -0.5760    3.8640   -0.0290 hc        1 MOL      0.092281
     32 H13         0.0520    3.3470    2.3570 hc        1 MOL      0.054835
     33 H14         1.0250    4.9440    2.2920 hc        1 MOL      0.054835
     34 H15        -0.0170    4.5210    3.5790 hc        1 MOL      0.054835
     35 H16         0.5510    5.8460   -1.3370 hc        1 MOL      0.051184
     36 H17         0.6400    6.5790    0.2630 hc        1 MOL      0.051184
     37 H18         1.3360    4.9450   -0.0680 hc        1 MOL      0.051184
     38 N3         -4.1880    3.7790    0.3340 n         1 MOL     -0.562521
     39 C13        -5.1830    4.0990   -0.7090 c3        1 MOL      0.116607
     40 C14        -6.3710    3.0530   -0.8680 c         1 MOL      0.397211
     41 O6         -7.1130    3.0960   -1.8630 o         1 MOL     -0.473750
     42 C15        -4.5460    4.3360   -2.0760 c3        1 MOL     -0.256064
     43 C16        -3.6120    3.2420   -2.4930 c         1 MOL      0.827088
     44 O7         -3.7110    2.0890   -1.9840 o         1 MOL     -0.736642
     45 O8         -2.6810    3.3360   -3.3030 o         1 MOL     -0.736642
     46 H19        -3.8880    2.8240    0.4500 hn        1 MOL      0.237840
     47 H20        -5.7150    5.0070   -0.4250 h1        1 MOL      0.074911
     48 H21        -4.0070    5.2740   -1.9510 hc        1 MOL      0.054182
     49 H22        -5.3720    4.4890   -2.7870 hc        1 MOL      0.054182
     50 N4         -6.5210    2.2260    0.1780 n         1 MOL     -0.238216
     51 C17        -7.8900    1.7270    0.4230 c3        1 MOL     -0.193823
     52 C18        -8.3440    0.6330   -0.5340 c         1 MOL      0.482511
     53 O9         -9.3770    0.6820   -1.1910 o         1 MOL     -0.560720
     54 H23        -5.8740    2.1370    0.9500 hn        1 MOL      0.266857
     55 H24        -8.6730    2.4830    0.4610 h1        1 MOL      0.088200
     56 H25        -7.9860    1.2980    1.4160 h1        1 MOL      0.088200
     57 N5         -7.4460   -0.3660   -0.5530 n         1 MOL     -0.099476
     58 C19        -7.5830   -1.5830   -1.2920 c3        1 MOL      0.017301
     59 C20        -7.4040   -2.8580   -0.4480 c         1 MOL      0.449134
     60 O10        -7.7740   -3.9150   -0.9820 o         1 MOL     -0.541879
     61 C21        -6.6930   -1.6390   -2.5810 c3        1 MOL     -0.006815
     62 C22        -5.2590   -1.2560   -2.2970 c         1 MOL      0.840561
     63 O11        -4.5230   -0.7610   -3.1800 o         1 MOL     -0.796608
     64 O12        -4.7680   -1.6730   -1.2440 o         1 MOL     -0.796608
     65 H26        -6.6250   -0.3320    0.0330 hn        1 MOL     -0.065674
     66 H27        -8.6350   -1.7300   -1.5540 h1        1 MOL      0.037927
     67 H28        -7.0990   -1.0210   -3.3790 hc        1 MOL      0.001231
     68 H29        -6.7080   -2.6390   -3.0200 hc        1 MOL      0.001231
     69 N6         -6.8180   -2.8680    0.7780 n         1 MOL     -0.346383
     70 C23        -6.4940   -4.0720    1.5090 c3        1 MOL     -0.027108
     71 C24        -5.1700   -4.7710    1.1190 c         1 MOL      0.501158
     72 O13        -4.9120   -5.8870    1.5090 o         1 MOL     -0.585063
     73 H30        -6.6570   -2.0350    1.3360 hn        1 MOL      0.274796
     74 H31        -7.1870   -4.8820    1.3120 h1        1 MOL      0.051247
     75 H32        -6.5500   -4.0020    2.5980 h1        1 MOL      0.051247
     76 N7         -4.3210   -4.0760    0.3530 n         1 MOL     -0.232259
     77 C25        -2.9320   -4.5080    0.0500 c3        1 MOL     -0.084860
     78 C26        -1.9150   -3.4850    0.3030 c         1 MOL      0.575979
     79 O14        -2.2430   -2.2870    0.2360 o         1 MOL     -0.654013
     80 C27        -2.7510   -5.2920   -1.3100 c3        1 MOL      0.113954
     81 C28        -2.9760   -4.5330   -2.6140 c3        1 MOL     -0.281508
     82 C29        -1.8630   -3.4630   -2.8330 c         1 MOL      0.722274
     83 N8         -0.8120   -3.7860   -3.4970 n         1 MOL     -0.818265
     84 O15        -1.8910   -2.3070   -2.4550 o         1 MOL     -0.602448
     85 H33        -4.6250   -3.2010   -0.0520 hn        1 MOL      0.293089
     86 H34        -2.7740   -5.2850    0.8030 h1        1 MOL      0.043201
     87 H35        -3.3950   -6.1640   -1.2570 hc        1 MOL     -0.011632
     88 H36        -1.7360   -5.6950   -1.3390 hc        1 MOL     -0.011632
     89 H37        -3.9670   -4.0680   -2.6180 hc        1 MOL      0.087926
     90 H38        -2.8970   -5.2880   -3.3970 hc        1 MOL      0.087926
     91 H39        -0.6470   -4.6830   -3.9310 hn        1 MOL      0.368054
     92 H40        -0.1880   -3.0080   -3.6600 hn        1 MOL      0.368054
     93 N9         -0.6990   -3.8950    0.6530 n         1 MOL     -0.466442
     94 C30         0.4090   -2.9980    1.0340 c3        1 MOL      0.352239
     95 C31         1.6560   -3.3320    0.2040 c         1 MOL      0.201511
     96 O16         2.4420   -4.2410    0.4150 o         1 MOL     -0.509890
     97 C32         0.8540   -3.2180    2.5230 c3        1 MOL      0.295529
     98 C33         1.7410   -2.1600    3.1200 c3        1 MOL     -0.300881
     99 C34        -0.3590   -3.3640    3.4260 c3        1 MOL     -0.300881
    100 H41        -0.6650   -4.8630    0.9460 hn        1 MOL      0.271189
    101 H42         0.1550   -1.9500    0.9100 h1        1 MOL      0.015599
    102 H43         1.3430   -4.1930    2.4820 hc        1 MOL     -0.063843
    103 H44         2.2090   -2.5960    3.9990 hc        1 MOL      0.055022
    104 H45         2.4370   -1.8300    2.3610 hc        1 MOL      0.055022
    105 H46         1.1270   -1.3240    3.4620 hc        1 MOL      0.055022
    106 H47        -0.7810   -4.3470    3.2560 hc        1 MOL      0.055022
    107 H48        -0.0060   -3.5200    4.4490 hc        1 MOL      0.055022
    108 H49        -1.0250   -2.5080    3.3820 hc        1 MOL      0.055022
    109 N10         1.9060   -2.4380   -0.7870 n         1 MOL     -0.170933
    110 C35         3.1540   -2.4080   -1.5960 c3        1 MOL      0.102049
    111 C36         4.3700   -1.9660   -0.7610 c         1 MOL      0.352323
    112 O17         4.2360   -1.4380    0.3800 o         1 MOL     -0.297654
    113 C37         2.9640   -1.3360   -2.7190 c3        1 MOL     -0.526327
    114 C38         1.8260   -1.6610   -3.6380 c         1 MOL      0.744079
    115 N11         0.7120   -1.0200   -3.4260 n         1 MOL     -0.708752
    116 O18         1.9540   -2.5020   -4.5150 o         1 MOL     -0.627079
    117 H50         1.2560   -1.7140   -1.0420 hn        1 MOL      0.177173
    118 H51         3.4000   -3.3640   -2.0490 h1        1 MOL      0.075882
    119 H52         3.8970   -1.4310   -3.2830 hc        1 MOL      0.162929
    120 H53         2.7470   -0.3420   -2.3310 hc        1 MOL      0.162929
    121 H54         0.4770   -0.4680   -2.6140 hn        1 MOL      0.319399
    122 H55         0.0280   -1.1100   -4.1660 hn        1 MOL      0.319399
    123 N12         5.5090   -2.1070   -1.3920 n         1 MOL     -0.526970
    124 C39         6.7490   -1.8190   -0.6690 c3        1 MOL      0.282302
    125 C40         6.7860   -0.3120   -0.2560 c         1 MOL      0.704422
    126 O19         7.1890    0.0750    0.7770 o         1 MOL     -0.512232
    127 C41         7.9860   -2.1980   -1.4830 c3        1 MOL     -0.158563
    128 C42         9.1850   -2.0750   -0.6260 ca        1 MOL      0.046232
    129 C43         9.3730   -3.0180    0.4880 ca        1 MOL     -0.233670
    130 C44        10.0970   -0.9870   -0.7800 ca        1 MOL     -0.233670
    131 C45        10.4770   -2.8220    1.3430 ca        1 MOL     -0.177024
    132 C46        11.1900   -0.8030    0.1230 ca        1 MOL     -0.177024
    133 C47        11.4170   -1.7470    1.1300 ca        1 MOL      0.240149
    134 O20        12.4450   -1.5500    2.0290 oh        1 MOL     -0.484690
    135 H56         5.5890   -2.5680   -2.2800 hn        1 MOL      0.307378
    136 H57         6.7240   -2.4040    0.2460 h1        1 MOL      0.019566
    137 H58         8.2020   -1.5750   -2.3490 hc        1 MOL      0.055597
    138 H59         7.9020   -3.2210   -1.8390 hc        1 MOL      0.055597
    139 H60         8.6720   -3.8140    0.6630 ha        1 MOL      0.156417
    140 H61         9.9760   -0.3260   -1.6200 ha        1 MOL      0.156417
    141 H62        10.6290   -3.4570    2.1980 ha        1 MOL      0.142104
    142 H63        11.7110    0.1370   -0.0150 ha        1 MOL      0.142104
    143 H64        13.0420   -0.8780    1.6830 ho        1 MOL      0.357024
    144 N13         6.3320    0.4660   -1.2860 n         1 MOL     -0.544106
    145 C48         6.2870    1.8910   -1.1790 c3        1 MOL     -0.016681
    146 C49         5.4000    2.4390   -0.0690 c         1 MOL      0.279158
    147 O21         5.5410    3.5560    0.3900 o         1 MOL     -0.493889
    148 C50         5.8210    2.5510   -2.4620 c3        1 MOL      0.143196
    149 C51         6.0930    4.0900   -2.4490 c3        1 MOL     -0.180645
    150 C52         6.0840    4.7840   -3.8320 c         1 MOL      0.622986
    151 O22         4.9970    4.8110   -4.4850 o         1 MOL     -0.724312
    152 O23         7.1560    5.0670   -4.4220 o         1 MOL     -0.724312
    153 H65         6.1930    0.0490   -2.1990 hn        1 MOL      0.231915
    154 H66         7.3230    2.1950   -1.0460 h1        1 MOL      0.081586
    155 H67         4.7860    2.2150   -2.5570 hc        1 MOL     -0.001498
    156 H68         6.4590    2.1300   -3.2390 hc        1 MOL     -0.001498
    157 H69         7.0750    4.3450   -2.0530 hc        1 MOL      0.024930
    158 H70         5.2850    4.5300   -1.8660 hc        1 MOL      0.024930
    159 N14         4.4590    1.5990    0.3640 n         1 MOL     -0.034613
    160 C53         3.5300    1.7140    1.4540 c3        1 MOL     -0.067427
    161 C54         4.1260    1.1250    2.6930 c         1 MOL      0.469115
    162 O24         3.7740    1.5480    3.7870 o         1 MOL     -0.556719
    163 C55         2.1150    1.0280    1.2360 c3        1 MOL      0.052039
    164 C56         1.4010    1.6120    0.0370 c3        1 MOL     -0.165546
    165 C57         0.0730    0.8750   -0.2070 c         1 MOL      0.725506
    166 O25        -0.9620    1.2960    0.3150 o         1 MOL     -0.675914
    167 O26         0.1230   -0.1310   -0.9330 o         1 MOL     -0.675914
    168 H71         4.4560    0.7110   -0.1240 hn        1 MOL      0.127963
    169 H72         3.3060    2.7440    1.7240 h1        1 MOL      0.084695
    170 H73         1.5190    1.1450    2.1430 hc        1 MOL      0.049487
    171 H74         2.3370   -0.0340    1.1050 hc        1 MOL      0.049487
    172 H75         2.0200    1.4100   -0.8440 hc        1 MOL      0.047256
    173 H76         1.2030    2.6740    0.2110 hc        1 MOL      0.047256
    174 N15         4.9940    0.1010    2.5790 n         1 MOL     -0.173524
    175 C58         5.5920   -0.6190    3.7460 c3        1 MOL     -0.146351
    176 H77         6.6410   -0.8350    3.5410 h1        1 MOL      0.068302
    177 H78         5.5190    0.0070    4.6360 h1        1 MOL      0.068302
    178 H79         5.0550   -1.5520    3.9130 h1        1 MOL      0.068302
    179 H80         5.0410   -0.3870    1.6950 hn        1 MOL      0.048030
    180 Ca1        -2.5890   -0.0800   -1.3280 Ca        1 MOL      1.698797
    181 O27        -0.8990    1.4280   -2.9310 oh        1 MOL     -0.861789
    182 H81        -0.7320    1.2610   -3.8580 ho        1 MOL      0.407463
    183 H82        -1.5360    2.1420   -2.9350 ho        1 MOL      0.407463
@<TRIPOS>BOND
     1    1    2 1   
     2    1    4 1   
     3    1    5 1   
     4    1    6 1   
     5    2    3 2   
     6    2    7 1   
     7    7    8 1   
     8    7   15 1   
     9    8    9 1   
    10    8   11 1   
    11    8   16 1   
    12    9   10 2   
    13    9   19 1   
    14   11   12 1   
    15   11   17 1   
    16   11   18 1   
    17   12   13 1   
    18   12   14 1   
    19   19   20 1   
    20   19   27 1   
    21   20   21 1   
    22   20   23 1   
    23   20   28 1   
    24   21   22 2   
    25   21   38 1   
    26   23   24 1   
    27   23   25 1   
    28   23   29 1   
    29   24   26 1   
    30   24   30 1   
    31   24   31 1   
    32   25   32 1   
    33   25   33 1   
    34   25   34 1   
    35   26   35 1   
    36   26   36 1   
    37   26   37 1   
    38   38   39 1   
    39   38   46 1   
    40   39   40 1   
    41   39   42 1   
    42   39   47 1   
    43   40   41 2   
    44   40   50 1   
    45   42   43 1   
    46   42   48 1   
    47   42   49 1   
    48   43   44 1   
    49   43   45 1   
    50   50   51 1   
    51   50   54 1   
    52   51   52 1   
    53   51   55 1   
    54   51   56 1   
    55   52   53 2   
    56   52   57 1   
    57   57   58 1   
    58   57   65 1   
    59   58   59 1   
    60   58   61 1   
    61   58   66 1   
    62   59   60 2   
    63   59   69 1   
    64   61   62 1   
    65   61   67 1   
    66   61   68 1   
    67   62   63 1   
    68   62   64 1   
    69   69   70 1   
    70   69   73 1   
    71   70   71 1   
    72   70   74 1   
    73   70   75 1   
    74   71   72 2   
    75   71   76 1   
    76   76   77 1   
    77   76   85 1   
    78   77   78 1   
    79   77   80 1   
    80   77   86 1   
    81   78   79 2   
    82   78   93 1   
    83   80   81 1   
    84   80   87 1   
    85   80   88 1   
    86   81   82 1   
    87   81   89 1   
    88   81   90 1   
    89   82   83 1   
    90   82   84 2   
    91   83   91 1   
    92   83   92 1   
    93   93   94 1   
    94   93  100 1   
    95   94   95 1   
    96   94   97 1   
    97   94  101 1   
    98   95   96 2   
    99   95  109 1   
   100   97   98 1   
   101   97   99 1   
   102   97  102 1   
   103   98  103 1   
   104   98  104 1   
   105   98  105 1   
   106   99  106 1   
   107   99  107 1   
   108   99  108 1   
   109  109  110 1   
   110  109  117 1   
   111  110  111 1   
   112  110  113 1   
   113  110  118 1   
   114  111  112 2   
   115  111  123 1   
   116  113  114 1   
   117  113  119 1   
   118  113  120 1   
   119  114  115 1   
   120  114  116 2   
   121  115  121 1   
   122  115  122 1   
   123  123  124 1   
   124  123  135 1   
   125  124  125 1   
   126  124  127 1   
   127  124  136 1   
   128  125  126 2   
   129  125  144 1   
   130  127  128 1   
   131  127  137 1   
   132  127  138 1   
   133  128  129 ar  
   134  128  130 ar  
   135  129  131 ar  
   136  129  139 1   
   137  130  132 ar  
   138  130  140 1   
   139  131  133 ar  
   140  131  141 1   
   141  132  133 ar  
   142  132  142 1   
   143  133  134 1   
   144  134  143 1   
   145  144  145 1   
   146  144  153 1   
   147  145  146 1   
   148  145  148 1   
   149  145  154 1   
   150  146  147 2   
   151  146  159 1   
   152  148  149 1   
   153  148  155 1   
   154  148  156 1   
   155  149  150 1   
   156  149  157 1   
   157  149  158 1   
   158  150  151 1   
   159  150  152 1   
   160  159  160 1   
   161  159  168 1   
   162  160  161 1   
   163  160  163 1   
   164  160  169 1   
   165  161  162 2   
   166  161  174 1   
   167  163  164 1   
   168  163  170 1   
   169  163  171 1   
   170  164  165 1   
   171  164  172 1   
   172  164  173 1   
   173  165  166 1   
   174  165  167 1   
   175  174  175 1   
   176  174  179 1   
   177  175  176 1   
   178  175  177 1   
   179  175  178 1   
   180  181  182 1   
   181  181  183 1   
@<TRIPOS>SUBSTRUCTURE
     1 MOL         1 TEMP              0 ****  ****    0 ROOT
