@<TRIPOS>MOLECULE
MOL
  189   185     1     0     0
SMALL
resp


@<TRIPOS>ATOM
      1 C1         -0.5170    1.7530    6.3840 c3        1 MOL     -0.465248
      2 C2         -0.7070    1.7940    4.8490 c         1 MOL      0.684560
      3 O1         -0.4550    0.8470    4.1930 o         1 MOL     -0.500371
      4 H1          0.2030    0.9750    6.6400 hc        1 MOL      0.118620
      5 H2         -0.1490    2.7180    6.7310 hc        1 MOL      0.118620
      6 H3         -1.4720    1.5340    6.8630 hc        1 MOL      0.118620
      7 N1         -1.4140    2.8440    4.4000 n         1 MOL     -0.571276
      8 C3         -1.9680    3.0850    3.0500 c3        1 MOL      0.332502
      9 C4         -1.6990    4.5290    2.4750 c         1 MOL      0.331314
     10 O2         -1.7840    5.5510    3.0790 o         1 MOL     -0.521106
     11 C5         -3.4580    2.8890    3.1420 c3        1 MOL     -0.245426
     12 C6         -4.1550    3.0840    1.7840 c         1 MOL      0.668704
     13 O3         -4.9640    3.9890    1.6680 o         1 MOL     -0.609692
     14 O4         -3.8560    2.2620    0.8680 o         1 MOL     -0.609692
     15 H4         -1.6240    3.5090    5.1300 hn        1 MOL      0.292554
     16 H5         -1.6290    2.3460    2.3240 h1        1 MOL     -0.120244
     17 H6         -3.8840    3.7700    3.6350 hc        1 MOL      0.028611
     18 H7         -3.6550    2.0330    3.7900 hc        1 MOL      0.028611
     19 N2         -1.5630    4.4630    1.1510 n         1 MOL     -0.099203
     20 C7         -1.6840    5.6290    0.2580 c3        1 MOL      0.140860
     21 C8         -2.4250    5.3640   -1.0220 c         1 MOL      0.398454
     22 O5         -2.4190    6.2630   -1.9490 o         1 MOL     -0.570730
     23 C9         -0.3250    6.3330    0.0860 c3        1 MOL      0.043208
     24 C10        -0.3710    7.7870   -0.3510 c3        1 MOL      0.255040
     25 C11         0.7030    5.6000   -0.7760 c3        1 MOL     -0.433771
     26 C12        -1.1250    8.6560    0.7080 c3        1 MOL     -0.443570
     27 H8         -1.6690    3.5170    0.8050 hn        1 MOL      0.131187
     28 H9         -2.2480    6.3900    0.8000 h1        1 MOL      0.066632
     29 H10         0.0900    6.4020    1.0900 hc        1 MOL      0.016657
     30 H11        -0.7260    7.9630   -1.3640 hc        1 MOL     -0.037475
     31 H12         0.6540    8.1390   -0.5090 hc        1 MOL     -0.037475
     32 H13         0.5770    4.5270   -0.6200 hc        1 MOL      0.112049
     33 H14         0.4420    5.9110   -1.7880 hc        1 MOL      0.112049
     34 H15         1.7550    5.8250   -0.6100 hc        1 MOL      0.112049
     35 H16        -0.9550    8.3400    1.7360 hc        1 MOL      0.088471
     36 H17        -0.8920    9.6970    0.5040 hc        1 MOL      0.088471
     37 H18        -2.2080    8.5750    0.5360 hc        1 MOL      0.088471
     38 N3         -3.1520    4.2330   -1.2090 n         1 MOL     -0.161512
     39 C13        -3.8600    3.9120   -2.4630 c3        1 MOL      0.136976
     40 C14        -5.3710    3.3860   -2.3620 c         1 MOL      0.351356
     41 O6         -6.1540    3.6720   -3.2230 o         1 MOL     -0.528712
     42 C15        -3.0440    2.9680   -3.3740 c3        1 MOL     -0.306027
     43 C16        -2.7880    1.5400   -2.9070 c         1 MOL      0.867471
     44 O7         -3.4480    0.9690   -2.0230 o         1 MOL     -0.738379
     45 O8         -1.7290    1.0080   -3.3750 o         1 MOL     -0.738379
     46 H19        -3.2450    3.5200   -0.5040 hn        1 MOL     -0.085776
     47 H20        -3.9540    4.7950   -3.0820 h1        1 MOL      0.066860
     48 H21        -2.0920    3.4910   -3.3910 hc        1 MOL      0.074359
     49 H22        -3.5290    2.9370   -4.3600 hc        1 MOL      0.074359
     50 N4         -5.7430    2.7980   -1.2100 n         1 MOL     -0.064316
     51 C17        -7.1000    2.3050   -0.8650 c3        1 MOL     -0.246099
     52 C18        -7.4540    0.9390   -1.5030 c         1 MOL      0.538966
     53 O9         -8.6420    0.6350   -1.6390 o         1 MOL     -0.594109
     54 H23        -4.9760    2.6040   -0.5840 hn        1 MOL      0.096733
     55 H24        -7.8230    3.0680   -1.1530 h1        1 MOL      0.110571
     56 H25        -7.2140    2.0840    0.1930 h1        1 MOL      0.110571
     57 N5         -6.4060    0.0860   -1.8650 n         1 MOL     -0.193021
     58 C19        -6.6520   -1.2200   -2.5810 c3        1 MOL     -0.151937
     59 C20        -7.0520   -2.3710   -1.5690 c         1 MOL      0.474639
     60 O10        -7.3620   -3.4730   -1.9480 o         1 MOL     -0.538452
     61 C21        -5.4310   -1.4580   -3.3900 c3        1 MOL     -0.143856
     62 C22        -4.1920   -1.9850   -2.6760 c         1 MOL      0.728301
     63 O11        -4.1020   -1.7490   -1.4560 o         1 MOL     -0.690534
     64 O12        -3.3160   -2.5060   -3.3840 o         1 MOL     -0.690534
     65 H26        -5.4580    0.4070   -1.7700 hn        1 MOL      0.179260
     66 H27        -7.4870   -0.9490   -3.2340 h1        1 MOL      0.117808
     67 H28        -5.0610   -0.5740   -3.8940 hc        1 MOL      0.048017
     68 H29        -5.7080   -2.1950   -4.1580 hc        1 MOL      0.048017
     69 N6         -6.8290   -2.1250   -0.3160 n         1 MOL     -0.251118
     70 C23        -6.9780   -2.9900    0.8510 c3        1 MOL     -0.146197
     71 C24        -5.9130   -4.0150    1.1300 c         1 MOL      0.491341
     72 O13        -6.1630   -5.0000    1.8400 o         1 MOL     -0.599254
     73 H30        -6.4570   -1.2030   -0.1490 hn        1 MOL      0.191237
     74 H31        -7.9610   -3.4570    0.9190 h1        1 MOL      0.088986
     75 H32        -6.9680   -2.2840    1.6740 h1        1 MOL      0.088986
     76 N7         -4.6850   -3.7860    0.7390 n         1 MOL     -0.118587
     77 C25        -3.4850   -4.5740    1.0660 c3        1 MOL     -0.149961
     78 C26        -2.1960   -3.6720    1.3170 c         1 MOL      0.418358
     79 O14        -2.1040   -2.5990    0.7490 o         1 MOL     -0.481931
     80 C27        -3.1160   -5.5660   -0.0550 c3        1 MOL      0.052470
     81 C28        -4.2580   -6.5400   -0.3290 c3        1 MOL     -0.437619
     82 C29        -3.6910   -7.7350   -1.1080 c         1 MOL      0.684220
     83 N8         -3.6890   -7.6050   -2.4260 n         1 MOL     -0.775087
     84 O15        -3.4650   -8.8790   -0.6370 o         1 MOL     -0.598879
     85 H33        -4.5970   -3.0510    0.0530 hn        1 MOL      0.167708
     86 H34        -3.6460   -5.0750    2.0230 h1        1 MOL      0.084126
     87 H35        -2.1970   -6.1050    0.1530 hc        1 MOL      0.051963
     88 H36        -2.7980   -4.9710   -0.9160 hc        1 MOL      0.051963
     89 H37        -4.9690   -6.0300   -0.9710 hc        1 MOL      0.162058
     90 H38        -4.7350   -6.8060    0.6100 hc        1 MOL      0.162058
     91 H39        -3.9150   -6.6930   -2.8120 hn        1 MOL      0.359370
     92 H40        -3.5060   -8.4090   -3.0160 hn        1 MOL      0.359370
     93 N9         -1.1820   -4.1520    2.0510 n         1 MOL     -0.402633
     94 C30         0.0610   -3.2830    2.2050 c3        1 MOL     -0.025087
     95 C31         1.0360   -3.5720    1.0130 c         1 MOL      0.577487
     96 O16         1.3370   -4.7230    0.8870 o         1 MOL     -0.633553
     97 C32         0.7990   -3.4790    3.5420 c3        1 MOL      0.205340
     98 C33         1.9530   -2.4860    3.6720 c3        1 MOL     -0.070716
     99 C34        -0.1510   -3.2190    4.6800 c3        1 MOL     -0.070716
    100 H41        -1.3030   -5.0630    2.4690 hn        1 MOL      0.280772
    101 H42        -0.2250   -2.2310    2.1560 h1        1 MOL      0.164302
    102 H43         1.2630   -4.4580    3.5760 hc        1 MOL     -0.018197
    103 H44         2.4660   -2.7440    4.5980 hc        1 MOL     -0.008802
    104 H45         2.6920   -2.6650    2.8910 hc        1 MOL     -0.008802
    105 H46         1.5620   -1.4730    3.5990 hc        1 MOL     -0.008802
    106 H47        -0.1000   -2.1660    4.9670 hc        1 MOL     -0.008802
    107 H48        -1.2080   -3.4260    4.4920 hc        1 MOL     -0.008802
    108 H49         0.1120   -3.9680    5.4270 hc        1 MOL     -0.008802
    109 N10         1.5550   -2.6670    0.2070 n         1 MOL      0.029534
    110 C35         2.6240   -2.9420   -0.8100 c3        1 MOL     -0.019677
    111 C36         4.0060   -2.3950   -0.3590 c         1 MOL      0.353374
    112 O17         4.1470   -1.7890    0.7350 o         1 MOL     -0.404647
    113 C37         2.1360   -2.3860   -2.2040 c3        1 MOL     -0.145449
    114 C38         2.3780   -0.8930   -2.3290 c         1 MOL      0.482080
    115 N11         1.4620   -0.1170   -1.8340 n         1 MOL     -0.389553
    116 O18         3.3580   -0.4860   -2.9030 o         1 MOL     -0.557816
    117 H50         1.2560   -1.7180    0.3370 hn        1 MOL     -0.217767
    118 H51         2.6890   -4.0290   -0.8760 h1        1 MOL      0.074186
    119 H52         1.0670   -2.6000   -2.2000 hc        1 MOL      0.063126
    120 H53         2.6440   -2.8790   -3.0250 hc        1 MOL      0.063126
    121 H54         0.6160   -0.4470   -1.3820 hn        1 MOL      0.303000
    122 H55         1.4530    0.8390   -2.1770 hn        1 MOL      0.303000
    123 N12         4.9950   -2.4640   -1.2450 n         1 MOL     -0.351284
    124 C39         6.3550   -1.9830   -0.9210 c3        1 MOL     -0.034729
    125 C40         6.3940   -0.4840   -0.6460 c         1 MOL      0.790494
    126 O19         6.9740   -0.1240    0.3790 o         1 MOL     -0.556193
    127 C41         7.4300   -2.2900   -1.9930 c3        1 MOL     -0.026519
    128 C42         8.7950   -2.2150   -1.3340 ca        1 MOL      0.088124
    129 C43         9.1960   -3.2010   -0.4050 ca        1 MOL     -0.236633
    130 C44         9.6920   -1.2430   -1.7180 ca        1 MOL     -0.236633
    131 C45        10.4400   -3.1400    0.2140 ca        1 MOL     -0.155345
    132 C46        10.9930   -1.1250   -1.1550 ca        1 MOL     -0.155345
    133 C47        11.3840   -2.1020   -0.1900 ca        1 MOL      0.261588
    134 O20        12.6140   -2.0370    0.3570 oh        1 MOL     -0.590170
    135 H56         4.7970   -3.0490   -2.0480 hn        1 MOL      0.260238
    136 H57         6.6100   -2.4170    0.0450 h1        1 MOL      0.050750
    137 H58         7.4120   -1.4960   -2.7390 hc        1 MOL      0.024749
    138 H59         7.3920   -3.2880   -2.4340 hc        1 MOL      0.024749
    139 H60         8.4940   -4.0140   -0.2580 ha        1 MOL      0.145474
    140 H61         9.3480   -0.5010   -2.4270 ha        1 MOL      0.145474
    141 H62        10.7940   -3.9460    0.8300 ha        1 MOL      0.113183
    142 H63        11.7310   -0.4070   -1.4770 ha        1 MOL      0.113183
    143 H64        13.1620   -1.2630    0.2230 ho        1 MOL      0.431015
    144 N13         5.7740    0.3930   -1.4500 n         1 MOL     -0.492113
    145 C48         5.7000    1.8840   -1.2370 c3        1 MOL     -0.008523
    146 C49         4.9310    2.3290    0.0810 c         1 MOL      0.369585
    147 O21         5.0220    3.5020    0.4850 o         1 MOL     -0.507095
    148 C50         5.1890    2.6180   -2.4550 c3        1 MOL      0.032697
    149 C51         5.9660    2.1950   -3.7040 c3        1 MOL     -0.272438
    150 C52         7.4870    2.5250   -3.4970 c         1 MOL      0.709667
    151 O22         7.8640    3.6960   -3.1530 o         1 MOL     -0.710112
    152 O23         8.3850    1.7170   -3.8170 o         1 MOL     -0.710112
    153 H65         5.3020    0.0380   -2.2710 hn        1 MOL      0.293486
    154 H66         6.7290    2.1740   -1.0270 h1        1 MOL      0.105670
    155 H67         5.4520    3.6670   -2.3050 hc        1 MOL      0.028120
    156 H68         4.1190    2.4870   -2.5650 hc        1 MOL      0.028120
    157 H69         5.6570    2.7470   -4.5880 hc        1 MOL      0.042467
    158 H70         5.8820    1.1180   -3.8600 hc        1 MOL      0.042467
    159 N14         4.1550    1.3930    0.6510 n         1 MOL     -0.273918
    160 C53         3.3890    1.4790    1.9240 c3        1 MOL     -0.123561
    161 C54         4.2560    0.9430    3.1270 c         1 MOL      0.501454
    162 O24         3.8400    1.1420    4.2500 o         1 MOL     -0.571905
    163 C55         2.1270    0.7850    1.6540 c3        1 MOL     -0.005977
    164 C56         1.2000    1.7680    0.9090 c3        1 MOL      0.068109
    165 C57        -0.1650    1.1080    0.5310 c         1 MOL      0.189762
    166 O25        -1.1080    1.7560   -0.0280 o         1 MOL     -0.460652
    167 O26        -0.2670   -0.1450    0.5610 o         1 MOL     -0.460652
    168 H71         4.0300    0.4730    0.2400 hn        1 MOL      0.159962
    169 H72         3.1730    2.4990    2.2530 h1        1 MOL      0.098700
    170 H73         1.6140    0.6940    2.6130 hc        1 MOL      0.086009
    171 H74         2.2580   -0.1560    1.1210 hc        1 MOL      0.086009
    172 H75         1.4570    2.0440   -0.1210 hc        1 MOL      0.019275
    173 H76         1.0320    2.7630    1.3240 hc        1 MOL      0.019275
    174 N15         5.3760    0.2540    2.8710 n         1 MOL     -0.137304
    175 C58         6.1150   -0.4220    3.9460 c3        1 MOL     -0.191577
    176 H77         5.7280   -1.4330    4.0720 h1        1 MOL      0.076208
    177 H78         7.1740   -0.4680    3.6860 h1        1 MOL      0.076208
    178 H79         5.9920    0.1330    4.8760 h1        1 MOL      0.076208
    179 H80         5.7030    0.0250    1.9500 hn        1 MOL      0.134571
    180 Ca1        -2.8510   -0.1700    0.2320 Ca        1 MOL      1.757416
    181 O27        -2.2920   -0.3900    2.8800 oh        1 MOL     -0.943568
    182 H81        -2.9630   -0.3580    3.5520 ho        1 MOL      0.439848
    183 H82        -1.4820   -0.1400    3.3230 ho        1 MOL      0.439848
    184 O28        -1.3910   -1.1290   -2.0910 oh        1 MOL     -0.943568
    185 H83        -2.0420   -1.8020   -2.2850 ho        1 MOL      0.439848
    186 H84        -1.6470   -0.3890   -2.6240 ho        1 MOL      0.439848
    187 O29        -5.1740   -0.6680    1.7250 oh        1 MOL     -0.943568
    188 H85        -4.9140   -0.8950    2.6230 ho        1 MOL      0.439848
    189 H86        -6.0130   -0.2150    1.8220 ho        1 MOL      0.439848
@<TRIPOS>BOND
     1    1    2 1   
     2    1    4 1   
     3    1    5 1   
     4    1    6 1   
     5    2    3 2   
     6    2    7 1   
     7    7    8 1   
     8    7   15 1   
     9    8    9 1   
    10    8   11 1   
    11    8   16 1   
    12    9   10 2   
    13    9   19 1   
    14   11   12 1   
    15   11   17 1   
    16   11   18 1   
    17   12   13 1   
    18   12   14 1   
    19   19   20 1   
    20   19   27 1   
    21   20   21 1   
    22   20   23 1   
    23   20   28 1   
    24   21   22 2   
    25   21   38 1   
    26   23   24 1   
    27   23   25 1   
    28   23   29 1   
    29   24   26 1   
    30   24   30 1   
    31   24   31 1   
    32   25   32 1   
    33   25   33 1   
    34   25   34 1   
    35   26   35 1   
    36   26   36 1   
    37   26   37 1   
    38   38   39 1   
    39   38   46 1   
    40   39   40 1   
    41   39   42 1   
    42   39   47 1   
    43   40   41 2   
    44   40   50 1   
    45   42   43 1   
    46   42   48 1   
    47   42   49 1   
    48   43   44 1   
    49   43   45 1   
    50   50   51 1   
    51   50   54 1   
    52   51   52 1   
    53   51   55 1   
    54   51   56 1   
    55   52   53 2   
    56   52   57 1   
    57   57   58 1   
    58   57   65 1   
    59   58   59 1   
    60   58   61 1   
    61   58   66 1   
    62   59   60 2   
    63   59   69 1   
    64   61   62 1   
    65   61   67 1   
    66   61   68 1   
    67   62   63 1   
    68   62   64 1   
    69   69   70 1   
    70   69   73 1   
    71   70   71 1   
    72   70   74 1   
    73   70   75 1   
    74   71   72 2   
    75   71   76 1   
    76   76   77 1   
    77   76   85 1   
    78   77   78 1   
    79   77   80 1   
    80   77   86 1   
    81   78   79 2   
    82   78   93 1   
    83   80   81 1   
    84   80   87 1   
    85   80   88 1   
    86   81   82 1   
    87   81   89 1   
    88   81   90 1   
    89   82   83 1   
    90   82   84 2   
    91   83   91 1   
    92   83   92 1   
    93   93   94 1   
    94   93  100 1   
    95   94   95 1   
    96   94   97 1   
    97   94  101 1   
    98   95   96 2   
    99   95  109 1   
   100   97   98 1   
   101   97   99 1   
   102   97  102 1   
   103   98  103 1   
   104   98  104 1   
   105   98  105 1   
   106   99  106 1   
   107   99  107 1   
   108   99  108 1   
   109  109  110 1   
   110  109  117 1   
   111  110  111 1   
   112  110  113 1   
   113  110  118 1   
   114  111  112 2   
   115  111  123 1   
   116  113  114 1   
   117  113  119 1   
   118  113  120 1   
   119  114  115 1   
   120  114  116 2   
   121  115  121 1   
   122  115  122 1   
   123  123  124 1   
   124  123  135 1   
   125  124  125 1   
   126  124  127 1   
   127  124  136 1   
   128  125  126 2   
   129  125  144 1   
   130  127  128 1   
   131  127  137 1   
   132  127  138 1   
   133  128  129 ar  
   134  128  130 ar  
   135  129  131 ar  
   136  129  139 1   
   137  130  132 ar  
   138  130  140 1   
   139  131  133 ar  
   140  131  141 1   
   141  132  133 ar  
   142  132  142 1   
   143  133  134 1   
   144  134  143 1   
   145  144  145 1   
   146  144  153 1   
   147  145  146 1   
   148  145  148 1   
   149  145  154 1   
   150  146  147 2   
   151  146  159 1   
   152  148  149 1   
   153  148  155 1   
   154  148  156 1   
   155  149  150 1   
   156  149  157 1   
   157  149  158 1   
   158  150  151 1   
   159  150  152 1   
   160  159  160 1   
   161  159  168 1   
   162  160  161 1   
   163  160  163 1   
   164  160  169 1   
   165  161  162 2   
   166  161  174 1   
   167  163  164 1   
   168  163  170 1   
   169  163  171 1   
   170  164  165 1   
   171  164  172 1   
   172  164  173 1   
   173  165  166 1   
   174  165  167 1   
   175  174  175 1   
   176  174  179 1   
   177  175  176 1   
   178  175  177 1   
   179  175  178 1   
   180  181  182 1   
   181  181  183 1   
   182  184  185 1   
   183  184  186 1   
   184  187  188 1   
   185  187  189 1   
@<TRIPOS>SUBSTRUCTURE
     1 MOL         1 TEMP              0 ****  ****    0 ROOT
