@<TRIPOS>MOLECULE
MOL
  172   171     1     0     0
SMALL
resp


@<TRIPOS>ATOM
      1 C1         -0.0250    2.0730    5.9130 c3        1 MOL     -0.317472
      2 C2         -0.4630    2.1800    4.4360 c         1 MOL      0.774428
      3 O1          0.0030    3.0790    3.7050 o         1 MOL     -0.596180
      4 H1          0.2790    1.0480    6.1270 hc        1 MOL      0.074823
      5 H2          0.8140    2.7450    6.0930 hc        1 MOL      0.074823
      6 H3         -0.8580    2.3460    6.5610 hc        1 MOL      0.074823
      7 N1         -1.5500    1.5720    4.0190 n         1 MOL     -0.612210
      8 C3         -2.1490    1.7500    2.6920 c3        1 MOL      0.191980
      9 C4         -2.7220    3.1450    2.4070 c         1 MOL      0.615215
     10 O2         -3.5440    3.6980    3.1780 o         1 MOL     -0.612966
     11 C5         -3.2470    0.6890    2.4830 c3        1 MOL     -0.471990
     12 C6         -4.0810    0.9330    1.2520 c         1 MOL      0.774820
     13 O3         -3.5350    1.2130    0.1690 o         1 MOL     -0.649456
     14 O4         -5.2790    0.8960    1.3320 o         1 MOL     -0.649456
     15 H4         -2.1120    0.9580    4.5970 hn        1 MOL      0.312137
     16 H5         -1.4650    1.5890    1.8580 h1        1 MOL      0.026432
     17 H6         -3.8560    0.4490    3.3570 hc        1 MOL      0.109315
     18 H7         -2.6890   -0.2320    2.2770 hc        1 MOL      0.109315
     19 N2         -2.2690    3.7500    1.3000 n         1 MOL     -0.233679
     20 C7         -2.4390    5.1090    0.8570 c3        1 MOL      0.177714
     21 C8         -3.1140    5.1960   -0.5630 c         1 MOL      0.316722
     22 O5         -3.3400    6.2810   -1.1000 o         1 MOL     -0.555025
     23 C9         -1.0500    5.8040    0.7770 c3        1 MOL     -0.408417
     24 H8         -1.5130    3.3340    0.7720 hn        1 MOL      0.182742
     25 H9         -3.0640    5.4960    1.6670 h1        1 MOL      0.026353
     26 H10        -0.6270    5.8370    1.7790 hc        1 MOL      0.112184
     27 H11        -0.4270    5.3250    0.0120 hc        1 MOL      0.112184
     28 H12        -1.2350    6.7990    0.3820 hc        1 MOL      0.112184
     29 N3         -3.4940    4.0830   -1.1340 n         1 MOL      0.024016
     30 C10        -4.4590    3.9890   -2.2570 c3        1 MOL      0.006157
     31 C11        -5.8450    3.5280   -1.9320 c         1 MOL      0.432018
     32 O6         -6.8230    3.8710   -2.5700 o         1 MOL     -0.567929
     33 C12        -3.7050    3.2490   -3.3580 c3        1 MOL      0.111388
     34 C13        -3.2070    1.8510   -3.2230 c         1 MOL      0.694441
     35 O7         -1.9530    1.6150   -3.2670 o         1 MOL     -0.787322
     36 O8         -3.9240    0.9070   -2.8290 o         1 MOL     -0.787322
     37 H13        -3.3660    3.2120   -0.6390 hn        1 MOL     -0.066922
     38 H14        -4.5030    4.9460   -2.7750 h1        1 MOL      0.053168
     39 H15        -2.8730    3.8590   -3.6790 hc        1 MOL     -0.033419
     40 H16        -4.3610    3.2170   -4.2280 hc        1 MOL     -0.033419
     41 N4         -6.0630    2.6890   -0.9200 n         1 MOL     -0.249143
     42 C14        -7.4680    2.3410   -0.4450 c3        1 MOL      0.014576
     43 C15        -7.9630    0.8910   -0.7580 c         1 MOL      0.507685
     44 O9         -9.1770    0.6610   -0.6990 o         1 MOL     -0.594601
     45 H17        -5.2610    2.3580   -0.3960 hn        1 MOL      0.196799
     46 H18        -8.2590    3.0300   -0.7250 h1        1 MOL      0.052858
     47 H19        -7.3730    2.5400    0.6240 h1        1 MOL      0.052858
     48 N5         -7.0490    0.0260   -1.1230 n         1 MOL     -0.247303
     49 C16        -7.2920   -1.3800   -1.2090 c3        1 MOL     -0.015195
     50 C17        -6.9400   -2.2220    0.0050 c         1 MOL      0.312843
     51 O10        -7.2390   -3.4590   -0.0030 o         1 MOL     -0.535700
     52 C18        -6.5860   -1.9030   -2.5220 c3        1 MOL     -0.291329
     53 C19        -5.1490   -2.1830   -2.3440 c         1 MOL      0.701415
     54 N6         -4.6190   -3.0720   -3.2150 n         1 MOL     -0.794694
     55 O11        -4.4020   -1.5980   -1.5550 o         1 MOL     -0.522713
     56 H20        -6.0900    0.3020   -1.2300 hn        1 MOL      0.227959
     57 H21        -8.3570   -1.5780   -1.3470 h1        1 MOL      0.125046
     58 H22        -6.6550   -1.2470   -3.3770 hc        1 MOL      0.106296
     59 H23        -6.9990   -2.8480   -2.8720 hc        1 MOL      0.106296
     60 H24        -5.1970   -3.6910   -3.7560 hn        1 MOL      0.356360
     61 H25        -3.6220   -3.2380   -3.1580 hn        1 MOL      0.356360
     62 N7         -6.3810   -1.7170    1.1300 n         1 MOL      0.020649
     63 C20        -6.1170   -2.4580    2.3540 c3        1 MOL     -0.271725
     64 C21        -5.0140   -3.4930    2.2140 c         1 MOL      0.580775
     65 O12        -4.9190   -4.4400    2.9980 o         1 MOL     -0.599749
     66 H26        -6.4280   -0.7040    1.0990 hn        1 MOL      0.135945
     67 H27        -7.0640   -2.9210    2.6460 h1        1 MOL      0.107024
     68 H28        -5.8480   -1.6850    3.0710 h1        1 MOL      0.107024
     69 N8         -4.2000   -3.3520    1.2240 n         1 MOL     -0.175453
     70 C22        -2.9510   -4.1240    1.0140 c3        1 MOL     -0.129064
     71 C23        -1.7540   -3.1630    0.9840 c         1 MOL      0.756332
     72 O13        -1.9420   -2.0580    0.5310 o         1 MOL     -0.707860
     73 C24        -3.1140   -4.9170   -0.3310 c3        1 MOL      0.541682
     74 C25        -1.9610   -5.8540   -0.5740 c3        1 MOL     -0.413864
     75 O14        -4.2390   -5.7870   -0.2440 oh        1 MOL     -0.634936
     76 H29        -4.2990   -2.4920    0.7040 hn        1 MOL      0.125419
     77 H30        -2.8670   -4.8630    1.8140 h1        1 MOL      0.081251
     78 H31        -3.2430   -4.2090   -1.1520 h1        1 MOL     -0.101159
     79 H32        -4.1700   -6.4280   -0.9520 ho        1 MOL      0.373559
     80 H33        -1.9190   -6.5700    0.2470 hc        1 MOL      0.087835
     81 H34        -2.0980   -6.3600   -1.5250 hc        1 MOL      0.087835
     82 H35        -1.0600   -5.2590   -0.5310 hc        1 MOL      0.087835
     83 N9         -0.5860   -3.5970    1.4210 n         1 MOL     -0.682047
     84 C26         0.6760   -2.7690    1.4350 c3        1 MOL      0.083373
     85 C27         1.6120   -3.0840    0.2590 c         1 MOL      0.641846
     86 O15         1.9190   -4.2620   -0.0840 o         1 MOL     -0.604556
     87 C28         1.3770   -2.9770    2.7830 c3        1 MOL     -0.007682
     88 C29         0.5890   -2.4140    3.9460 c3        1 MOL      0.481845
     89 C30         2.8880   -2.5600    2.7890 c3        1 MOL     -0.035186
     90 C31         0.9870   -2.9570    5.3280 c3        1 MOL     -0.479899
     91 H36        -0.4950   -4.5590    1.7050 hn        1 MOL      0.323582
     92 H37         0.4210   -1.7170    1.4640 h1        1 MOL      0.144041
     93 H38         1.5060   -4.0400    2.9680 hc        1 MOL     -0.010487
     94 H39        -0.4600   -2.7010    3.9040 hc        1 MOL     -0.103797
     95 H40         0.5710   -1.3270    3.9290 hc        1 MOL     -0.103797
     96 H41         2.8720   -1.5100    2.5170 hc        1 MOL     -0.013956
     97 H42         3.3370   -2.7950    3.7570 hc        1 MOL     -0.013956
     98 H43         3.4780   -2.9950    1.9780 hc        1 MOL     -0.013956
     99 H44         0.4460   -2.2170    5.9180 hc        1 MOL      0.101351
    100 H45         0.6460   -3.9840    5.3630 hc        1 MOL      0.101351
    101 H46         2.0780   -2.9350    5.3890 hc        1 MOL      0.101351
    102 N10         2.0360   -1.9950   -0.3550 n         1 MOL     -0.342238
    103 C32         3.0940   -2.0050   -1.3400 c3        1 MOL      0.007961
    104 C33         4.4190   -1.4600   -0.7740 c         1 MOL      0.640251
    105 O16         4.4970   -0.7110    0.2180 o         1 MOL     -0.334502
    106 C34         2.6810   -1.2380   -2.6220 c3        1 MOL     -0.318905
    107 C35         1.2310   -1.5000   -3.0520 c         1 MOL      0.843647
    108 O17         0.9810   -2.5820   -3.5970 o         1 MOL     -0.718126
    109 O18         0.2930   -0.6850   -2.9990 o         1 MOL     -0.718126
    110 H47         1.7320   -1.0650   -0.0970 hn        1 MOL      0.047169
    111 H48         3.1970   -3.0180   -1.7280 h1        1 MOL      0.082592
    112 H49         3.3200   -1.4800   -3.4690 hc        1 MOL      0.097321
    113 H50         2.6800   -0.1750   -2.3640 hc        1 MOL      0.097321
    114 N11         5.6060   -1.8330   -1.3640 n         1 MOL     -0.829494
    115 C36         6.9280   -1.2880   -0.9320 c3        1 MOL      0.471614
    116 C37         7.0540    0.2000   -0.7800 c         1 MOL      0.136922
    117 O19         7.5800    0.6230    0.2660 o         1 MOL     -0.438760
    118 C38         8.0700   -1.8530   -1.7900 c3        1 MOL     -0.223001
    119 C39         9.5000   -1.5090   -1.3420 ca        1 MOL      0.014043
    120 C40         9.9690   -1.9850   -0.1190 ca        1 MOL     -0.063481
    121 C41        10.3300   -0.6280   -2.0900 ca        1 MOL     -0.063481
    122 C42        11.2580   -1.8660    0.3200 ca        1 MOL     -0.219681
    123 C43        11.6160   -0.3630   -1.6600 ca        1 MOL     -0.219681
    124 C44        12.0850   -0.9320   -0.3930 ca        1 MOL     -0.005520
    125 H51         5.6250   -2.6090   -2.0170 hn        1 MOL      0.361750
    126 H52         7.1080   -1.6360    0.0830 h1        1 MOL      0.030258
    127 H53         7.9040   -1.5100   -2.8170 hc        1 MOL      0.068205
    128 H54         7.9440   -2.9320   -1.7520 hc        1 MOL      0.068205
    129 H55         9.2880   -2.5730    0.4830 ha        1 MOL      0.099906
    130 H56         9.9100   -0.1700   -2.9710 ha        1 MOL      0.099906
    131 H57        11.6880   -2.3040    1.2020 ha        1 MOL      0.138613
    132 H58        12.3050    0.2840   -2.1690 ha        1 MOL      0.138613
    133 H59        13.1070   -0.7080   -0.1240 ha        1 MOL      0.075318
    134 N12         6.5330    1.0570   -1.6500 n         1 MOL      0.071808
    135 C45         6.4880    2.5150   -1.4730 c3        1 MOL      0.010064
    136 C46         5.8460    2.9310   -0.1320 c         1 MOL      0.179653
    137 O20         6.2610    3.7460    0.6900 o         1 MOL     -0.460196
    138 C47         5.7020    3.0180   -2.6280 c3        1 MOL      0.197942
    139 C48         5.9720    2.0440   -3.7650 c3        1 MOL     -0.253570
    140 C49         6.1640    0.7120   -3.0180 c3        1 MOL      0.040428
    141 H60         7.5210    2.8470   -1.6020 h1        1 MOL      0.046848
    142 H61         4.6380    3.0890   -2.4430 hc        1 MOL     -0.015299
    143 H62         6.0360    4.0230   -2.8720 hc        1 MOL     -0.015299
    144 H63         5.1400    2.0290   -4.4620 hc        1 MOL      0.070626
    145 H64         6.9460    2.4270   -4.0680 hc        1 MOL      0.070626
    146 H65         5.2110    0.1880   -3.0260 h1        1 MOL      0.015956
    147 H66         6.9310    0.1210   -3.5270 h1        1 MOL      0.015956
    148 N13         4.7840    2.1790    0.2320 n         1 MOL      0.019392
    149 C50         3.9350    2.4880    1.3980 c3        1 MOL     -0.227685
    150 C51         4.6540    2.0150    2.7190 c         1 MOL      0.492854
    151 O21         4.5810    2.6960    3.7920 o         1 MOL     -0.565039
    152 C52         2.5700    1.7770    1.3350 c3        1 MOL      0.127485
    153 C53         1.7910    2.2250    0.0040 c3        1 MOL      0.165071
    154 C54         0.4050    1.5430   -0.1130 c         1 MOL      0.562194
    155 O22         0.3040    0.2720   -0.0650 o         1 MOL     -0.664956
    156 O23        -0.6050    2.1660   -0.4400 o         1 MOL     -0.664956
    157 H67         4.6000    1.3430   -0.3060 hn        1 MOL      0.098868
    158 H68         3.8160    3.5680    1.3790 h1        1 MOL      0.142629
    159 H69         1.9720    1.9720    2.2210 hc        1 MOL     -0.054162
    160 H70         2.7530    0.7120    1.1960 hc        1 MOL     -0.054162
    161 H71         2.3700    1.9900   -0.8840 hc        1 MOL     -0.042747
    162 H72         1.8060    3.3100   -0.0700 hc        1 MOL     -0.042747
    163 N14         5.3070    0.8560    2.6440 n         1 MOL     -0.062968
    164 C55         6.1950    0.3570    3.6910 c3        1 MOL     -0.360025
    165 H73         6.3460   -0.7150    3.5580 h1        1 MOL      0.124874
    166 H74         7.1560    0.8690    3.6280 h1        1 MOL      0.124874
    167 H75         5.7470    0.5420    4.6670 h1        1 MOL      0.124874
    168 H76         5.3150    0.4430    1.7210 hn        1 MOL      0.083731
    169 Ca1        -1.8040   -0.2480   -1.5190 Ca        1 MOL      1.795265
    170 O24        -1.4650   -2.7960   -2.8910 oh        1 MOL     -0.947444
    171 H77        -0.5550   -2.5330   -3.0320 ho        1 MOL      0.436490
    172 H78        -1.4820   -3.7310   -3.0860 ho        1 MOL      0.436490
@<TRIPOS>BOND
     1    1    2 1   
     2    1    4 1   
     3    1    5 1   
     4    1    6 1   
     5    2    3 2   
     6    2    7 1   
     7    7    8 1   
     8    7   15 1   
     9    8    9 1   
    10    8   11 1   
    11    8   16 1   
    12    9   10 2   
    13    9   19 1   
    14   11   12 1   
    15   11   17 1   
    16   11   18 1   
    17   12   13 1   
    18   12   14 1   
    19   19   20 1   
    20   19   24 1   
    21   20   21 1   
    22   20   23 1   
    23   20   25 1   
    24   21   22 2   
    25   21   29 1   
    26   23   26 1   
    27   23   27 1   
    28   23   28 1   
    29   29   30 1   
    30   29   37 1   
    31   30   31 1   
    32   30   33 1   
    33   30   38 1   
    34   31   32 2   
    35   31   41 1   
    36   33   34 1   
    37   33   39 1   
    38   33   40 1   
    39   34   35 1   
    40   34   36 1   
    41   41   42 1   
    42   41   45 1   
    43   42   43 1   
    44   42   46 1   
    45   42   47 1   
    46   43   44 2   
    47   43   48 1   
    48   48   49 1   
    49   48   56 1   
    50   49   50 1   
    51   49   52 1   
    52   49   57 1   
    53   50   51 2   
    54   50   62 1   
    55   52   53 1   
    56   52   58 1   
    57   52   59 1   
    58   53   54 1   
    59   53   55 2   
    60   54   60 1   
    61   54   61 1   
    62   62   63 1   
    63   62   66 1   
    64   63   64 1   
    65   63   67 1   
    66   63   68 1   
    67   64   65 2   
    68   64   69 1   
    69   69   70 1   
    70   69   76 1   
    71   70   71 1   
    72   70   73 1   
    73   70   77 1   
    74   71   72 2   
    75   71   83 1   
    76   73   74 1   
    77   73   75 1   
    78   73   78 1   
    79   74   80 1   
    80   74   81 1   
    81   74   82 1   
    82   75   79 1   
    83   83   84 1   
    84   83   91 1   
    85   84   85 1   
    86   84   87 1   
    87   84   92 1   
    88   85   86 2   
    89   85  102 1   
    90   87   88 1   
    91   87   89 1   
    92   87   93 1   
    93   88   90 1   
    94   88   94 1   
    95   88   95 1   
    96   89   96 1   
    97   89   97 1   
    98   89   98 1   
    99   90   99 1   
   100   90  100 1   
   101   90  101 1   
   102  102  103 1   
   103  102  110 1   
   104  103  104 1   
   105  103  106 1   
   106  103  111 1   
   107  104  105 2   
   108  104  114 1   
   109  106  107 1   
   110  106  112 1   
   111  106  113 1   
   112  107  108 1   
   113  107  109 1   
   114  114  115 1   
   115  114  125 1   
   116  115  116 1   
   117  115  118 1   
   118  115  126 1   
   119  116  117 2   
   120  116  134 1   
   121  118  119 1   
   122  118  127 1   
   123  118  128 1   
   124  119  120 ar  
   125  119  121 ar  
   126  120  122 ar  
   127  120  129 1   
   128  121  123 ar  
   129  121  130 1   
   130  122  124 ar  
   131  122  131 1   
   132  123  124 ar  
   133  123  132 1   
   134  124  133 1   
   135  134  135 1   
   136  134  140 1   
   137  135  136 1   
   138  135  138 1   
   139  135  141 1   
   140  136  137 2   
   141  136  148 1   
   142  138  139 1   
   143  138  142 1   
   144  138  143 1   
   145  139  140 1   
   146  139  144 1   
   147  139  145 1   
   148  140  146 1   
   149  140  147 1   
   150  148  149 1   
   151  148  157 1   
   152  149  150 1   
   153  149  152 1   
   154  149  158 1   
   155  150  151 2   
   156  150  163 1   
   157  152  153 1   
   158  152  159 1   
   159  152  160 1   
   160  153  154 1   
   161  153  161 1   
   162  153  162 1   
   163  154  155 1   
   164  154  156 1   
   165  163  164 1   
   166  163  168 1   
   167  164  165 1   
   168  164  166 1   
   169  164  167 1   
   170  170  171 1   
   171  170  172 1   
@<TRIPOS>SUBSTRUCTURE
     1 MOL         1 TEMP              0 ****  ****    0 ROOT
