@<TRIPOS>MOLECULE
MOL
  189   185     1     0     0
SMALL
resp


@<TRIPOS>ATOM
      1 C1          0.7600   -5.1010    5.6410 c3        1 MOL     -0.328465
      2 C2          1.2310   -4.3850    4.2910 c         1 MOL      0.698930
      3 O1          1.3520   -3.1440    4.3250 o         1 MOL     -0.612217
      4 H1          1.6330   -5.4670    6.1810 hc        1 MOL      0.081440
      5 H2          0.2220   -4.3860    6.2640 hc        1 MOL      0.081440
      6 H3          0.1050   -5.9390    5.3990 hc        1 MOL      0.081440
      7 N1          1.3300   -5.0970    3.2030 n         1 MOL     -0.563978
      8 C3          1.9110   -4.5390    1.9580 c3        1 MOL      0.228132
      9 C4          1.6550   -5.3390    0.6760 c         1 MOL      0.471481
     10 O2          1.6300   -6.5850    0.8340 o         1 MOL     -0.597267
     11 C5          3.4610   -4.3700    2.1410 c3        1 MOL     -0.190380
     12 C6          4.1170   -3.7740    0.9330 c         1 MOL      0.676632
     13 O3          5.2290   -4.2150    0.5180 o         1 MOL     -0.657502
     14 O4          3.6160   -2.7880    0.3760 o         1 MOL     -0.657502
     15 H4          1.1750   -6.0920    3.3060 hn        1 MOL      0.314474
     16 H5          1.4740   -3.5680    1.7640 h1        1 MOL      0.040507
     17 H6          3.9970   -5.2580    2.4890 hc        1 MOL      0.032916
     18 H7          3.4670   -3.5930    2.9020 hc        1 MOL      0.032916
     19 N2          1.5040   -4.6940   -0.4600 n         1 MOL     -0.060544
     20 C7          1.2920   -5.4210   -1.7490 c3        1 MOL     -0.379003
     21 C8          2.3290   -4.9680   -2.8410 c         1 MOL      0.579334
     22 O5          2.4970   -5.6200   -3.8930 o         1 MOL     -0.592215
     23 C9         -0.1600   -5.3770   -2.3030 c3        1 MOL      0.306132
     24 C10        -0.6360   -3.9090   -2.6440 c3        1 MOL      0.030764
     25 C11        -1.0920   -6.1290   -1.3120 c3        1 MOL     -0.194341
     26 C12        -1.8280   -3.8250   -3.6120 c3        1 MOL     -0.495410
     27 H8          1.3940   -3.6890   -0.3740 hn        1 MOL      0.046566
     28 H9          1.5580   -6.4750   -1.6580 h1        1 MOL      0.149799
     29 H10        -0.2830   -5.9440   -3.2340 hc        1 MOL     -0.045395
     30 H11         0.1890   -3.3610   -3.1030 hc        1 MOL      0.070044
     31 H12        -0.8660   -3.5200   -1.6470 hc        1 MOL      0.070044
     32 H13        -0.8540   -7.1870   -1.2920 hc        1 MOL      0.032660
     33 H14        -1.1630   -5.6510   -0.3330 hc        1 MOL      0.032660
     34 H15        -2.0810   -6.1390   -1.7690 hc        1 MOL      0.032660
     35 H16        -1.9950   -2.8020   -3.9310 hc        1 MOL      0.122051
     36 H17        -1.6050   -4.2810   -4.5730 hc        1 MOL      0.122051
     37 H18        -2.6980   -4.1820   -3.0710 hc        1 MOL      0.122051
     38 N3          3.0680   -3.8990   -2.5660 n         1 MOL     -0.349995
     39 C13         3.9270   -3.1700   -3.5840 c3        1 MOL      0.006417
     40 C14         5.2950   -2.5880   -3.0800 c         1 MOL      0.405978
     41 O6          6.2200   -2.3500   -3.8410 o         1 MOL     -0.562385
     42 C15         3.1680   -2.0200   -4.2790 c3        1 MOL     -0.261404
     43 C16         2.5480   -1.0080   -3.3230 c         1 MOL      0.792903
     44 O7          3.0740   -0.7800   -2.1970 o         1 MOL     -0.725007
     45 O8          1.4950   -0.3770   -3.7090 o         1 MOL     -0.725007
     46 H19         3.0530   -3.4340   -1.6660 hn        1 MOL      0.294787
     47 H20         4.1210   -3.9370   -4.3150 h1        1 MOL      0.101167
     48 H21         2.2980   -2.3940   -4.8210 hc        1 MOL      0.072721
     49 H22         3.8260   -1.4570   -4.9210 hc        1 MOL      0.072721
     50 N4          5.5510   -2.4700   -1.7540 n         1 MOL     -0.035518
     51 C17         6.7850   -2.0660   -1.1630 c3        1 MOL     -0.084568
     52 C18         7.2640   -0.6960   -1.3290 c         1 MOL      0.409940
     53 O9          8.4110   -0.2950   -1.0900 o         1 MOL     -0.606792
     54 H23         4.8480   -2.7030   -1.0720 hn        1 MOL     -0.027668
     55 H24         7.5840   -2.8010   -1.1800 h1        1 MOL      0.089086
     56 H25         6.6020   -2.1740   -0.0890 h1        1 MOL      0.089086
     57 N5          6.3990    0.2210   -1.8120 n         1 MOL     -0.176147
     58 C19         6.7170    1.5750   -2.2390 c3        1 MOL      0.065752
     59 C20         7.1850    2.4280   -1.0010 c         1 MOL      0.430869
     60 O10         7.6890    3.4910   -1.1990 o         1 MOL     -0.548622
     61 C21         5.4870    2.3160   -2.8070 c3        1 MOL     -0.200688
     62 C22         4.2510    2.3990   -1.8570 c         1 MOL      0.667434
     63 O11         4.0780    1.7000   -0.8180 o         1 MOL     -0.671942
     64 O12         3.3090    3.1360   -2.2130 o         1 MOL     -0.671942
     65 H26         5.5190   -0.1530   -2.1330 hn        1 MOL      0.172910
     66 H27         7.4760    1.6500   -3.0260 h1        1 MOL      0.058811
     67 H28         5.1820    1.7840   -3.7130 hc        1 MOL      0.066825
     68 H29         5.8650    3.2250   -3.2730 hc        1 MOL      0.066825
     69 N6          6.8860    1.9850    0.2640 n         1 MOL     -0.151135
     70 C23         7.1170    2.7450    1.4700 c3        1 MOL     -0.214728
     71 C24         5.8510    3.5000    2.0150 c         1 MOL      0.473992
     72 O13         5.9200    4.1150    3.0920 o         1 MOL     -0.634415
     73 H30         6.3890    1.1020    0.2650 hn        1 MOL      0.142888
     74 H31         7.8360    3.5390    1.2280 h1        1 MOL      0.099973
     75 H32         7.5200    2.0730    2.2280 h1        1 MOL      0.099973
     76 N7          4.7460    3.5180    1.3450 n         1 MOL     -0.119506
     77 C25         3.5000    4.1710    1.7390 c3        1 MOL     -0.069589
     78 C26         2.3000    3.1570    1.7580 c         1 MOL      0.483501
     79 O14         2.5120    2.0080    1.4750 o         1 MOL     -0.512115
     80 C27         3.3180    5.2130    0.6860 c3        1 MOL      0.210469
     81 C28         4.4180    6.2530    0.4430 c3        1 MOL     -0.263485
     82 C29         3.8510    7.5490   -0.2250 c         1 MOL      0.640001
     83 N8          4.5730    8.6140   -0.2410 n         1 MOL     -0.750775
     84 O15         2.6630    7.7090   -0.4670 o         1 MOL     -0.556698
     85 H33         4.7290    2.8950    0.5490 hn        1 MOL      0.174841
     86 H34         3.4690    4.6920    2.6940 h1        1 MOL      0.044378
     87 H35         2.4000    5.7220    0.9740 hc        1 MOL     -0.025655
     88 H36         3.0340    4.7330   -0.2550 hc        1 MOL     -0.025655
     89 H37         5.2030    5.8470   -0.1880 hc        1 MOL      0.072520
     90 H38         4.9020    6.5320    1.3730 hc        1 MOL      0.072520
     91 H39         5.5710    8.4960   -0.2350 hn        1 MOL      0.335978
     92 H40         4.1040    9.4560   -0.5540 hn        1 MOL      0.335978
     93 N9          1.1470    3.6220    2.2300 n         1 MOL     -0.447435
     94 C30        -0.0380    2.7750    2.3840 c3        1 MOL     -0.125424
     95 C31        -1.2040    3.1100    1.3730 c         1 MOL      0.670418
     96 O16        -1.7680    4.1940    1.4080 o         1 MOL     -0.587763
     97 C32        -0.4880    2.9680    3.8610 c3        1 MOL      0.253894
     98 C33        -1.8040    2.1830    4.1390 c3        1 MOL     -0.281646
     99 C34         0.5650    2.4410    4.9100 c3        1 MOL     -0.281646
    100 H41         1.1100    4.5600    2.6040 hn        1 MOL      0.312114
    101 H42         0.2970    1.7460    2.2920 h1        1 MOL      0.141520
    102 H43        -0.5890    4.0240    4.1220 hc        1 MOL     -0.025041
    103 H44        -2.5850    2.7360    3.6010 hc        1 MOL      0.056214
    104 H45        -1.6750    1.2290    3.6370 hc        1 MOL      0.056214
    105 H46        -2.0830    2.1100    5.1890 hc        1 MOL      0.056214
    106 H47         0.2270    2.4880    5.9390 hc        1 MOL      0.056214
    107 H48         1.0070    1.4620    4.7030 hc        1 MOL      0.056214
    108 H49         1.3010    3.2450    5.0090 hc        1 MOL      0.056214
    109 N10        -1.4640    2.1840    0.4140 n         1 MOL     -0.680890
    110 C35        -2.7540    2.1900   -0.2860 c3        1 MOL      0.281135
    111 C36        -3.9640    2.0250    0.5670 c         1 MOL      0.090533
    112 O17        -3.9460    1.1580    1.4620 o         1 MOL     -0.215616
    113 C37        -2.7080    1.2300   -1.4810 c3        1 MOL     -0.432190
    114 C38        -3.8780    1.5250   -2.4690 c         1 MOL      0.892999
    115 N11        -4.1570    2.7630   -2.8280 n         1 MOL     -0.856181
    116 O18        -4.5100    0.5800   -2.8960 o         1 MOL     -0.638088
    117 H50        -0.7890    1.4270    0.4080 hn        1 MOL      0.548250
    118 H51        -2.8320    3.2520   -0.5470 h1        1 MOL      0.042374
    119 H52        -2.7810    0.2450   -1.0270 hc        1 MOL      0.152130
    120 H53        -1.7970    1.5060   -2.0150 hc        1 MOL      0.152130
    121 H54        -3.7180    3.5640   -2.3990 hn        1 MOL      0.358031
    122 H55        -4.9920    2.8560   -3.3840 hn        1 MOL      0.358031
    123 N12        -5.1270    2.5620    0.2690 n         1 MOL     -0.144396
    124 C39        -6.3670    2.2970    1.0010 c3        1 MOL      0.286104
    125 C40        -6.6340    0.8360    1.1170 c         1 MOL      0.044486
    126 O19        -7.1590    0.3880    2.2210 o         1 MOL     -0.504012
    127 C41        -7.5070    3.0590    0.3110 c3        1 MOL     -0.317067
    128 C42        -7.4500    3.1840   -1.2680 ca        1 MOL      0.153031
    129 C43        -7.0190    4.3650   -1.8990 ca        1 MOL     -0.179946
    130 C44        -7.8890    2.1290   -2.0440 ca        1 MOL     -0.179946
    131 C45        -7.0800    4.5450   -3.2420 ca        1 MOL     -0.245342
    132 C46        -7.8160    2.2170   -3.4580 ca        1 MOL     -0.245342
    133 C47        -7.3770    3.4240   -4.0320 ca        1 MOL      0.306653
    134 O20        -7.0850    3.4390   -5.3780 oh        1 MOL     -0.469163
    135 H56        -5.0960    3.1540   -0.5500 hn        1 MOL      0.097099
    136 H57        -6.1620    2.7040    1.9880 h1        1 MOL      0.038423
    137 H58        -7.5350    4.0830    0.6860 hc        1 MOL      0.101591
    138 H59        -8.4440    2.5690    0.5830 hc        1 MOL      0.101591
    139 H60        -6.5840    5.1530   -1.3080 ha        1 MOL      0.112620
    140 H61        -8.3890    1.2700   -1.6350 ha        1 MOL      0.112620
    141 H62        -6.6610    5.4370   -3.6960 ha        1 MOL      0.122017
    142 H63        -7.9290    1.3170   -4.0470 ha        1 MOL      0.122017
    143 H64        -6.7570    4.3010   -5.6380 ho        1 MOL      0.330416
    144 N13        -6.2770    0.0190    0.1110 n         1 MOL      0.212227
    145 C48        -6.5420   -1.4960    0.1820 c3        1 MOL     -0.089992
    146 C49        -5.6900   -2.2590    1.1520 c         1 MOL      0.337146
    147 O21        -6.1150   -3.3480    1.6240 o         1 MOL     -0.519851
    148 C50        -6.3730   -2.1300   -1.2140 c3        1 MOL      0.304573
    149 C51        -7.3110   -1.5250   -2.2900 c3        1 MOL     -0.348513
    150 C52        -8.7480   -1.6560   -1.7120 c         1 MOL      0.766058
    151 O22        -9.3830   -0.7140   -1.2120 o         1 MOL     -0.725452
    152 O23        -9.2950   -2.7500   -1.7330 o         1 MOL     -0.725452
    153 H65        -5.7960    0.3560   -0.7120 hn        1 MOL      0.084663
    154 H66        -7.5780   -1.5690    0.5250 h1        1 MOL      0.141523
    155 H67        -6.7080   -3.1320   -1.0010 hc        1 MOL     -0.083188
    156 H68        -5.3300   -2.2520   -1.4980 hc        1 MOL     -0.083188
    157 H69        -7.2420   -1.9540   -3.2840 hc        1 MOL      0.087342
    158 H70        -7.0790   -0.4720   -2.4480 hc        1 MOL      0.087342
    159 N14        -4.5540   -1.6690    1.5550 n         1 MOL     -0.089704
    160 C53        -3.5640   -2.2670    2.5300 c3        1 MOL     -0.041238
    161 C54        -3.9190   -1.7810    3.9690 c         1 MOL      0.539740
    162 O24        -3.8090   -2.5930    4.7990 o         1 MOL     -0.571046
    163 C55        -2.1350   -1.8370    2.1750 c3        1 MOL     -0.061680
    164 C56        -1.6980   -2.0090    0.7470 c3        1 MOL     -0.228427
    165 C57        -0.2800   -1.4460    0.6510 c         1 MOL      0.844561
    166 O25         0.5920   -1.9860   -0.0970 o         1 MOL     -0.793893
    167 O26        -0.0080   -0.2830    1.0250 o         1 MOL     -0.793893
    168 H71        -4.3530   -0.7360    1.2270 hn        1 MOL     -0.023066
    169 H72        -3.7540   -3.3340    2.5890 h1        1 MOL      0.082340
    170 H73        -1.3700   -2.2490    2.8310 hc        1 MOL      0.042445
    171 H74        -2.1740   -0.7570    2.2940 hc        1 MOL      0.042445
    172 H75        -2.4470   -1.5870    0.0710 hc        1 MOL      0.066699
    173 H76        -1.5800   -3.0890    0.6290 hc        1 MOL      0.066699
    174 N15        -4.3260   -0.5420    4.1620 n         1 MOL     -0.205705
    175 C58        -4.7930    0.0860    5.4660 c3        1 MOL     -0.216496
    176 H77        -5.7910    0.5030    5.3320 h1        1 MOL      0.092152
    177 H78        -4.8180   -0.6740    6.2480 h1        1 MOL      0.092152
    178 H79        -4.1040    0.8800    5.7530 h1        1 MOL      0.092152
    179 H80        -4.3430    0.0770    3.3600 hn        1 MOL      0.163505
    180 Ca1         2.6100   -0.4900    0.3750 Ca        1 MOL      1.744439
    181 O27         2.5270   -1.1360    2.9170 oh        1 MOL     -0.896368
    182 O28         1.1880    1.1900   -1.2770 oh        1 MOL     -0.896368
    183 H81         2.0750   -1.7020    3.5400 ho        1 MOL      0.429099
    184 H82         1.0480    0.8090   -2.1460 ho        1 MOL      0.429099
    185 H83         2.9310   -0.4570    3.4570 ho        1 MOL      0.429099
    186 H84         2.0080    1.6800   -1.3690 ho        1 MOL      0.429099
    187 O29         4.7750    0.0120    1.7650 oh        1 MOL     -0.896368
    188 H85         5.6490   -0.3490    1.6330 ho        1 MOL      0.429099
    189 H86         4.7640    0.3120    2.6710 ho        1 MOL      0.429099
@<TRIPOS>BOND
     1    1    2 1   
     2    1    4 1   
     3    1    5 1   
     4    1    6 1   
     5    2    3 2   
     6    2    7 1   
     7    7    8 1   
     8    7   15 1   
     9    8    9 1   
    10    8   11 1   
    11    8   16 1   
    12    9   10 2   
    13    9   19 1   
    14   11   12 1   
    15   11   17 1   
    16   11   18 1   
    17   12   13 1   
    18   12   14 1   
    19   19   20 1   
    20   19   27 1   
    21   20   21 1   
    22   20   23 1   
    23   20   28 1   
    24   21   22 2   
    25   21   38 1   
    26   23   24 1   
    27   23   25 1   
    28   23   29 1   
    29   24   26 1   
    30   24   30 1   
    31   24   31 1   
    32   25   32 1   
    33   25   33 1   
    34   25   34 1   
    35   26   35 1   
    36   26   36 1   
    37   26   37 1   
    38   38   39 1   
    39   38   46 1   
    40   39   40 1   
    41   39   42 1   
    42   39   47 1   
    43   40   41 2   
    44   40   50 1   
    45   42   43 1   
    46   42   48 1   
    47   42   49 1   
    48   43   44 1   
    49   43   45 1   
    50   50   51 1   
    51   50   54 1   
    52   51   52 1   
    53   51   55 1   
    54   51   56 1   
    55   52   53 2   
    56   52   57 1   
    57   57   58 1   
    58   57   65 1   
    59   58   59 1   
    60   58   61 1   
    61   58   66 1   
    62   59   60 2   
    63   59   69 1   
    64   61   62 1   
    65   61   67 1   
    66   61   68 1   
    67   62   63 1   
    68   62   64 1   
    69   69   70 1   
    70   69   73 1   
    71   70   71 1   
    72   70   74 1   
    73   70   75 1   
    74   71   72 2   
    75   71   76 1   
    76   76   77 1   
    77   76   85 1   
    78   77   78 1   
    79   77   80 1   
    80   77   86 1   
    81   78   79 2   
    82   78   93 1   
    83   80   81 1   
    84   80   87 1   
    85   80   88 1   
    86   81   82 1   
    87   81   89 1   
    88   81   90 1   
    89   82   83 1   
    90   82   84 2   
    91   83   91 1   
    92   83   92 1   
    93   93   94 1   
    94   93  100 1   
    95   94   95 1   
    96   94   97 1   
    97   94  101 1   
    98   95   96 2   
    99   95  109 1   
   100   97   98 1   
   101   97   99 1   
   102   97  102 1   
   103   98  103 1   
   104   98  104 1   
   105   98  105 1   
   106   99  106 1   
   107   99  107 1   
   108   99  108 1   
   109  109  110 1   
   110  109  117 1   
   111  110  111 1   
   112  110  113 1   
   113  110  118 1   
   114  111  112 2   
   115  111  123 1   
   116  113  114 1   
   117  113  119 1   
   118  113  120 1   
   119  114  115 1   
   120  114  116 2   
   121  115  121 1   
   122  115  122 1   
   123  123  124 1   
   124  123  135 1   
   125  124  125 1   
   126  124  127 1   
   127  124  136 1   
   128  125  126 2   
   129  125  144 1   
   130  127  128 1   
   131  127  137 1   
   132  127  138 1   
   133  128  129 ar  
   134  128  130 ar  
   135  129  131 ar  
   136  129  139 1   
   137  130  132 ar  
   138  130  140 1   
   139  131  133 ar  
   140  131  141 1   
   141  132  133 ar  
   142  132  142 1   
   143  133  134 1   
   144  134  143 1   
   145  144  145 1   
   146  144  153 1   
   147  145  146 1   
   148  145  148 1   
   149  145  154 1   
   150  146  147 2   
   151  146  159 1   
   152  148  149 1   
   153  148  155 1   
   154  148  156 1   
   155  149  150 1   
   156  149  157 1   
   157  149  158 1   
   158  150  151 1   
   159  150  152 1   
   160  159  160 1   
   161  159  168 1   
   162  160  161 1   
   163  160  163 1   
   164  160  169 1   
   165  161  162 2   
   166  161  174 1   
   167  163  164 1   
   168  163  170 1   
   169  163  171 1   
   170  164  165 1   
   171  164  172 1   
   172  164  173 1   
   173  165  166 1   
   174  165  167 1   
   175  174  175 1   
   176  174  179 1   
   177  175  176 1   
   178  175  177 1   
   179  175  178 1   
   180  181  183 1   
   181  181  185 1   
   182  182  184 1   
   183  182  186 1   
   184  187  188 1   
   185  187  189 1   
@<TRIPOS>SUBSTRUCTURE
     1 MOL         1 TEMP              0 ****  ****    0 ROOT
