@<TRIPOS>MOLECULE
MOL
  182   178     1     0     0
SMALL
resp


@<TRIPOS>ATOM
      1 C1         -1.4070   -3.6740    5.7460 c3        1 MOL     -0.339638
      2 C2         -1.0350   -2.9730    4.4330 c         1 MOL      0.767579
      3 O1         -1.8820   -2.7170    3.5850 o         1 MOL     -0.618617
      4 H1         -1.7060   -4.7010    5.5360 hc        1 MOL      0.088803
      5 H2         -0.5470   -3.6750    6.4150 hc        1 MOL      0.088803
      6 H3         -2.2350   -3.1450    6.2190 hc        1 MOL      0.088803
      7 N1          0.2860   -2.7100    4.2080 n         1 MOL     -0.681448
      8 C3          0.8120   -2.5510    2.8360 c3        1 MOL      0.150615
      9 C4          0.9030   -3.8740    2.0000 c         1 MOL      0.593086
     10 O2          1.4110   -4.8700    2.5640 o         1 MOL     -0.577952
     11 C5          2.2090   -1.9250    2.9820 c3        1 MOL     -0.248002
     12 C6          2.8390   -1.4510    1.6760 c         1 MOL      0.850782
     13 O3          2.4680   -1.9090    0.5790 o         1 MOL     -0.818120
     14 O4          3.7270   -0.6080    1.8840 o         1 MOL     -0.818120
     15 H4          0.9430   -2.6210    4.9730 hn        1 MOL      0.341946
     16 H5          0.2000   -1.8800    2.2340 h1        1 MOL      0.022931
     17 H6          2.8310   -2.7120    3.4040 hc        1 MOL      0.081242
     18 H7          2.0790   -1.1180    3.7090 hc        1 MOL      0.081242
     19 N2          0.3390   -3.8740    0.7970 n         1 MOL     -0.362858
     20 C7          0.2590   -5.0770   -0.0430 c3        1 MOL     -0.032618
     21 C8          1.4940   -5.4600   -0.8350 c         1 MOL      0.512936
     22 O5          1.5430   -6.5850   -1.3220 o         1 MOL     -0.575380
     23 C9         -1.1070   -5.0340   -0.8020 c3        1 MOL     -0.068579
     24 C10        -2.2750   -4.9800    0.2000 c3        1 MOL     -0.174545
     25 C11        -3.6810   -5.2150   -0.3480 c3        1 MOL     -0.010971
     26 C12        -3.9690   -6.7010   -0.6460 c3        1 MOL      0.064203
     27 N3         -5.3630   -6.8020   -1.1890 n4        1 MOL     -0.491254
     28 H8          0.0010   -2.9810    0.4570 hn        1 MOL      0.199724
     29 H9          0.1820   -5.9160    0.6480 h1        1 MOL      0.084397
     30 H10        -1.2640   -5.8870   -1.4620 hc        1 MOL      0.028545
     31 H11        -1.1070   -4.1650   -1.4690 hc        1 MOL      0.028545
     32 H12        -2.2860   -3.9280    0.5120 hc        1 MOL      0.109976
     33 H13        -2.1090   -5.6240    1.0590 hc        1 MOL      0.109976
     34 H14        -3.9040   -4.5850   -1.2110 hc        1 MOL      0.062119
     35 H15        -4.3560   -4.8950    0.4350 hc        1 MOL      0.062119
     36 H16        -3.8730   -7.2890    0.2680 hx        1 MOL      0.084470
     37 H17        -3.2470   -7.1480   -1.3270 hx        1 MOL      0.084470
     38 H18        -6.0480   -6.5120   -0.5120 hn        1 MOL      0.361040
     39 H19        -5.4570   -6.3650   -2.1030 hn        1 MOL      0.361040
     40 H20        -5.4480   -7.7930   -1.3800 hn        1 MOL      0.361040
     41 N4          2.4910   -4.5580   -0.9810 n         1 MOL     -0.325818
     42 C13         3.8200   -4.8780   -1.6370 c3        1 MOL     -0.024751
     43 C14         5.0360   -4.3860   -0.7140 c         1 MOL      0.362954
     44 O6          6.2200   -4.5180   -1.1600 o         1 MOL     -0.517782
     45 C15         3.8440   -4.3700   -3.1030 c3        1 MOL     -0.078542
     46 C16         3.6250   -2.8920   -3.2490 c         1 MOL      0.772996
     47 O7          3.2400   -2.1830   -2.2720 o         1 MOL     -0.726732
     48 O8          3.8700   -2.3970   -4.3870 o         1 MOL     -0.726732
     49 H21         2.3460   -3.6140   -0.6830 hn        1 MOL      0.306411
     50 H22         3.9090   -5.9600   -1.6960 h1        1 MOL      0.114666
     51 H23         3.0510   -4.9180   -3.6120 hc        1 MOL      0.035673
     52 H24         4.7240   -4.7150   -3.6470 hc        1 MOL      0.035673
     53 N5          4.6630   -3.7160    0.3960 n         1 MOL     -0.159283
     54 C17         5.6400   -3.1910    1.4340 c3        1 MOL     -0.214196
     55 C18         6.3280   -1.9420    0.9860 c         1 MOL      0.597552
     56 O9          7.2480   -1.5960    1.6640 o         1 MOL     -0.565435
     57 H25         3.6890   -3.5450    0.5840 hn        1 MOL      0.099682
     58 H26         6.3650   -4.0030    1.4610 h1        1 MOL      0.125542
     59 H27         5.1640   -3.0660    2.4070 h1        1 MOL      0.125542
     60 N6          5.8650   -1.2240   -0.1030 n         1 MOL     -0.345713
     61 C19         6.6000   -0.0540   -0.6450 c3        1 MOL     -0.039972
     62 C20         6.5180    1.1660    0.2490 c         1 MOL      0.427375
     63 O10         7.2570    2.1120   -0.0210 o         1 MOL     -0.536703
     64 C21         6.1190    0.1500   -2.0640 c3        1 MOL     -0.330427
     65 C22         4.8830    0.9200   -2.1860 c         1 MOL      0.728889
     66 N7          4.8770    1.8750   -3.0140 n         1 MOL     -0.718948
     67 O11         3.8700    0.6060   -1.6070 o         1 MOL     -0.810781
     68 H28         5.1830   -1.7110   -0.6580 hn        1 MOL      0.300345
     69 H29         7.6440   -0.3690   -0.6200 h1        1 MOL      0.124609
     70 H30         5.9960   -0.8030   -2.5700 hc        1 MOL      0.132995
     71 H31         6.8690    0.7370   -2.5910 hc        1 MOL      0.132995
     72 H32         5.6570    2.1220   -3.5990 hn        1 MOL      0.355724
     73 H33         3.9560    2.2650   -3.1640 hn        1 MOL      0.355724
     74 N8          5.8860    1.1190    1.3890 n         1 MOL     -0.199358
     75 C23         5.8920    2.2130    2.3420 c3        1 MOL     -0.259879
     76 C24         4.6320    3.0820    2.1710 c         1 MOL      0.598437
     77 O12         4.3440    3.8970    3.0650 o         1 MOL     -0.588737
     78 H34         5.3650    0.2950    1.6330 hn        1 MOL      0.352773
     79 H35         6.7830    2.8470    2.3160 h1        1 MOL      0.132359
     80 H36         5.8830    1.7810    3.3460 h1        1 MOL      0.132359
     81 N9          3.8090    2.7650    1.1820 n         1 MOL     -0.460593
     82 C25         2.5330    3.4710    1.1130 c3        1 MOL      0.475958
     83 C26         1.2930    2.5570    0.9330 c         1 MOL      0.236049
     84 O13         1.3700    1.4220    0.4310 o         1 MOL     -0.483546
     85 C27         2.4740    4.4630   -0.0720 c3        1 MOL     -0.285838
     86 C28         3.6430    5.4200   -0.1180 ca        1 MOL      0.296756
     87 C29         4.6210    5.1240   -1.1790 ca        1 MOL     -0.382156
     88 C30         3.7420    6.5730    0.6290 ca        1 MOL     -0.382156
     89 C31         5.7110    6.0440   -1.3110 ca        1 MOL     -0.082774
     90 C32         4.8780    7.3200    0.5610 ca        1 MOL     -0.082774
     91 C33         5.8780    7.1310   -0.4410 ca        1 MOL      0.158658
     92 O14         7.0120    7.8730   -0.3080 oh        1 MOL     -0.430879
     93 H37         3.9590    1.9250    0.6340 hn        1 MOL      0.366698
     94 H38         2.3820    4.0300    2.0290 h1        1 MOL     -0.023944
     95 H39         1.4910    4.8980    0.1150 hc        1 MOL      0.050333
     96 H40         2.4930    3.8060   -0.9440 hc        1 MOL      0.050333
     97 H41         4.5650    4.2390   -1.7900 ha        1 MOL      0.184958
     98 H42         3.0330    6.7790    1.4150 ha        1 MOL      0.184958
     99 H43         6.5210    5.8950   -2.0060 ha        1 MOL      0.120248
    100 H44         5.0370    8.1100    1.2730 ha        1 MOL      0.120248
    101 H45         6.7880    8.5560    0.3240 ho        1 MOL      0.342296
    102 N10         0.1180    3.0820    1.3700 n         1 MOL     -0.379458
    103 C34        -1.1870    2.5240    1.0330 c3        1 MOL     -0.030586
    104 C35        -2.1020    3.5690    0.3510 c         1 MOL      0.398067
    105 O15        -2.2400    4.7360    0.7180 o         1 MOL     -0.504231
    106 C36        -1.9450    1.8490    2.2290 c3        1 MOL     -0.050494
    107 C37        -2.1460    2.7200    3.4910 c3        1 MOL     -0.011289
    108 C38        -1.0160    0.6160    2.5350 c3        1 MOL     -0.140501
    109 C39        -3.0220    2.1240    4.5490 c3        1 MOL     -0.291316
    110 H46         0.1930    3.9520    1.8800 hn        1 MOL      0.273796
    111 H47        -0.9640    1.7420    0.3010 h1        1 MOL      0.216676
    112 H48        -2.9060    1.5090    1.8520 hc        1 MOL      0.018993
    113 H49        -2.4620    3.7340    3.2570 hc        1 MOL      0.055409
    114 H50        -1.1790    2.8840    3.9860 hc        1 MOL      0.055409
    115 H51        -0.1990    1.0570    3.1130 hc        1 MOL      0.063125
    116 H52        -1.4260   -0.0110    3.3240 hc        1 MOL      0.063125
    117 H53        -0.6230    0.0420    1.7030 hc        1 MOL      0.063125
    118 H54        -3.1210    2.8540    5.3650 hc        1 MOL      0.077920
    119 H55        -3.8950    1.7190    4.0400 hc        1 MOL      0.077920
    120 H56        -2.4920    1.2660    4.9380 hc        1 MOL      0.077920
    121 N11        -2.9480    2.9910   -0.5390 n         1 MOL     -0.191262
    122 C40        -4.0010    3.6940   -1.2320 c3        1 MOL      0.052369
    123 C41        -5.3230    3.3500   -0.5690 c         1 MOL      0.489720
    124 O16        -5.4740    2.4300    0.2020 o         1 MOL     -0.399896
    125 C42        -3.8860    3.1390   -2.6870 c3        1 MOL     -0.241759
    126 O17        -4.3200    1.7780   -2.8070 oh        1 MOL     -0.389691
    127 H57        -2.8240    2.0370   -0.8300 hn        1 MOL      0.095077
    128 H58        -3.8850    4.7790   -1.2000 h1        1 MOL      0.080914
    129 H59        -2.8170    3.0590   -2.9200 h1        1 MOL      0.126272
    130 H60        -4.4440    3.7550   -3.3840 h1        1 MOL      0.126272
    131 H61        -4.1990    1.4650   -3.6980 ho        1 MOL      0.381923
    132 N12        -6.3240    4.1530   -0.8670 n         1 MOL     -0.465672
    133 C43        -7.7300    3.9090   -0.6540 c3        1 MOL      0.149615
    134 C44        -8.3370    2.6300   -1.1540 c         1 MOL      0.391357
    135 O18        -9.5240    2.3660   -0.9450 o         1 MOL     -0.514315
    136 C45        -8.5170    5.2410   -0.9400 c3        1 MOL     -0.328068
    137 H62        -6.1240    4.9070   -1.5080 hn        1 MOL      0.285627
    138 H63        -7.7260    3.7200    0.4250 h1        1 MOL      0.091011
    139 H64        -9.5630    5.1380   -0.6780 hc        1 MOL      0.108860
    140 H65        -8.1480    6.0400   -0.2960 hc        1 MOL      0.108860
    141 H66        -8.3730    5.5450   -1.9830 hc        1 MOL      0.108860
    142 N13        -7.6000    1.8440   -1.9350 n         1 MOL     -0.307343
    143 C46        -7.8640    0.3850   -2.1180 c3        1 MOL      0.222203
    144 C47        -7.2370   -0.5870   -1.0930 c         1 MOL      0.262185
    145 O19        -7.8460   -1.6120   -0.8120 o         1 MOL     -0.483538
    146 C48        -7.4050    0.1240   -3.5320 c3        1 MOL     -0.219233
    147 H67        -6.7870    2.3480   -2.2710 hn        1 MOL      0.193010
    148 H68        -8.9420    0.1850   -2.0480 h1        1 MOL      0.073759
    149 H69        -7.8840    0.8730   -4.1630 hc        1 MOL      0.046860
    150 H70        -6.3250    0.2300   -3.5920 hc        1 MOL      0.046860
    151 H71        -7.6680   -0.9060   -3.7620 hc        1 MOL      0.046860
    152 N14        -6.0390   -0.1780   -0.5920 n         1 MOL      0.012396
    153 C49        -5.3580   -0.9790    0.4170 c3        1 MOL     -0.073783
    154 C50        -6.0710   -0.8310    1.8100 c         1 MOL      0.382487
    155 O20        -6.3440   -1.8630    2.4920 o         1 MOL     -0.519363
    156 C51        -3.8840   -0.7220    0.3560 c3        1 MOL      0.126019
    157 C52        -3.0590   -1.1430   -0.9250 c3        1 MOL      0.034481
    158 C53        -1.5280   -0.7320   -0.9120 c         1 MOL      0.669565
    159 O21        -0.7040   -1.3900   -0.3030 o         1 MOL     -0.702453
    160 O22        -1.0850    0.1020   -1.6700 o         1 MOL     -0.702453
    161 H72        -5.6150    0.6080   -1.0480 hn        1 MOL      0.087399
    162 H73        -5.4740   -2.0200    0.1140 h1        1 MOL      0.027838
    163 H74        -3.4090   -1.0960    1.2590 hc        1 MOL      0.012663
    164 H75        -3.8020    0.3620    0.4530 hc        1 MOL      0.012663
    165 H76        -3.6320   -0.6940   -1.7450 hc        1 MOL     -0.081932
    166 H77        -3.1600   -2.2210   -0.9340 hc        1 MOL     -0.081932
    167 N15        -6.6790    0.3610    2.0630 n         1 MOL     -0.106040
    168 C54        -7.6040    0.6040    3.2520 c3        1 MOL     -0.217966
    169 H78        -7.9220   -0.3530    3.6650 h1        1 MOL      0.104195
    170 H79        -7.0730    1.1700    4.0160 h1        1 MOL      0.104195
    171 H80        -8.4770    1.1670    2.9240 h1        1 MOL      0.104195
    172 H81        -6.4510    1.0960    1.3930 hn        1 MOL      0.105347
    173 Ca1         1.4630   -0.5770   -1.4740 Ca        1 MOL      1.796034
    174 O23         0.1910   -2.6060   -2.9730 oh        1 MOL     -0.817922
    175 H82         0.1260   -3.5470   -3.1580 ho        1 MOL      0.395376
    176 H83        -0.5550   -2.2240   -3.4400 ho        1 MOL      0.395376
    177 O24         1.9080   -0.2510   -4.3880 oh        1 MOL     -0.817922
    178 H84         2.5630   -0.9440   -4.2730 ho        1 MOL      0.395376
    179 H85         2.3990    0.4820   -4.7580 ho        1 MOL      0.395376
    180 O25         0.9970    1.9600   -2.6360 oh        1 MOL     -0.817922
    181 H86         0.1840    2.4300   -2.4220 ho        1 MOL      0.395376
    182 H87         1.4180    2.4940   -3.3090 ho        1 MOL      0.395376
@<TRIPOS>BOND
     1    1    2 1   
     2    1    4 1   
     3    1    5 1   
     4    1    6 1   
     5    2    3 2   
     6    2    7 1   
     7    7    8 1   
     8    7   15 1   
     9    8    9 1   
    10    8   11 1   
    11    8   16 1   
    12    9   10 2   
    13    9   19 1   
    14   11   12 1   
    15   11   17 1   
    16   11   18 1   
    17   12   13 1   
    18   12   14 1   
    19   19   20 1   
    20   19   28 1   
    21   20   21 1   
    22   20   23 1   
    23   20   29 1   
    24   21   22 2   
    25   21   41 1   
    26   23   24 1   
    27   23   30 1   
    28   23   31 1   
    29   24   25 1   
    30   24   32 1   
    31   24   33 1   
    32   25   26 1   
    33   25   34 1   
    34   25   35 1   
    35   26   27 1   
    36   26   36 1   
    37   26   37 1   
    38   27   38 1   
    39   27   39 1   
    40   27   40 1   
    41   41   42 1   
    42   41   49 1   
    43   42   43 1   
    44   42   45 1   
    45   42   50 1   
    46   43   44 2   
    47   43   53 1   
    48   45   46 1   
    49   45   51 1   
    50   45   52 1   
    51   46   47 1   
    52   46   48 1   
    53   53   54 1   
    54   53   57 1   
    55   54   55 1   
    56   54   58 1   
    57   54   59 1   
    58   55   56 2   
    59   55   60 1   
    60   60   61 1   
    61   60   68 1   
    62   61   62 1   
    63   61   64 1   
    64   61   69 1   
    65   62   63 2   
    66   62   74 1   
    67   64   65 1   
    68   64   70 1   
    69   64   71 1   
    70   65   66 1   
    71   65   67 2   
    72   66   72 1   
    73   66   73 1   
    74   74   75 1   
    75   74   78 1   
    76   75   76 1   
    77   75   79 1   
    78   75   80 1   
    79   76   77 2   
    80   76   81 1   
    81   81   82 1   
    82   81   93 1   
    83   82   83 1   
    84   82   85 1   
    85   82   94 1   
    86   83   84 2   
    87   83  102 1   
    88   85   86 1   
    89   85   95 1   
    90   85   96 1   
    91   86   87 ar  
    92   86   88 ar  
    93   87   89 ar  
    94   87   97 1   
    95   88   90 ar  
    96   88   98 1   
    97   89   91 ar  
    98   89   99 1   
    99   90   91 ar  
   100   90  100 1   
   101   91   92 1   
   102   92  101 1   
   103  102  103 1   
   104  102  110 1   
   105  103  104 1   
   106  103  106 1   
   107  103  111 1   
   108  104  105 2   
   109  104  121 1   
   110  106  107 1   
   111  106  108 1   
   112  106  112 1   
   113  107  109 1   
   114  107  113 1   
   115  107  114 1   
   116  108  115 1   
   117  108  116 1   
   118  108  117 1   
   119  109  118 1   
   120  109  119 1   
   121  109  120 1   
   122  121  122 1   
   123  121  127 1   
   124  122  123 1   
   125  122  125 1   
   126  122  128 1   
   127  123  124 2   
   128  123  132 1   
   129  125  126 1   
   130  125  129 1   
   131  125  130 1   
   132  126  131 1   
   133  132  133 1   
   134  132  137 1   
   135  133  134 1   
   136  133  136 1   
   137  133  138 1   
   138  134  135 2   
   139  134  142 1   
   140  136  139 1   
   141  136  140 1   
   142  136  141 1   
   143  142  143 1   
   144  142  147 1   
   145  143  144 1   
   146  143  146 1   
   147  143  148 1   
   148  144  145 2   
   149  144  152 1   
   150  146  149 1   
   151  146  150 1   
   152  146  151 1   
   153  152  153 1   
   154  152  161 1   
   155  153  154 1   
   156  153  156 1   
   157  153  162 1   
   158  154  155 2   
   159  154  167 1   
   160  156  157 1   
   161  156  163 1   
   162  156  164 1   
   163  157  158 1   
   164  157  165 1   
   165  157  166 1   
   166  158  159 1   
   167  158  160 1   
   168  167  168 1   
   169  167  172 1   
   170  168  169 1   
   171  168  170 1   
   172  168  171 1   
   173  174  175 1   
   174  174  176 1   
   175  177  178 1   
   176  177  179 1   
   177  180  181 1   
   178  180  182 1   
@<TRIPOS>SUBSTRUCTURE
     1 MOL         1 TEMP              0 ****  ****    0 ROOT
