@<TRIPOS>MOLECULE
MOL
  189   185     1     0     0
SMALL
resp


@<TRIPOS>ATOM
      1 C1          0.2450   -4.2770    5.9700 c3        1 MOL     -0.433815
      2 C2          0.8340   -3.6160    4.6620 c         1 MOL      0.704225
      3 O1          0.9810   -2.3940    4.5970 o         1 MOL     -0.593942
      4 H1          0.3690   -5.3580    5.9170 hc        1 MOL      0.109354
      5 H2          0.7740   -3.8940    6.8420 hc        1 MOL      0.109354
      6 H3         -0.8150   -4.0370    6.0530 hc        1 MOL      0.109354
      7 N1          1.2400   -4.4940    3.7410 n         1 MOL     -0.577533
      8 C3          1.7830   -4.0830    2.4730 c3        1 MOL      0.291054
      9 C4          1.6650   -5.1650    1.3130 c         1 MOL      0.292170
     10 O2          2.0310   -6.3580    1.5020 o         1 MOL     -0.560123
     11 C5          3.3060   -3.6760    2.6720 c3        1 MOL     -0.129300
     12 C6          4.0480   -3.2660    1.4320 c         1 MOL      0.731653
     13 O3          5.2730   -3.5330    1.3820 o         1 MOL     -0.687980
     14 O4          3.4540   -2.6180    0.5590 o         1 MOL     -0.687980
     15 H4          0.9630   -5.4500    3.9140 hn        1 MOL      0.307179
     16 H5          1.1440   -3.2420    2.2260 h1        1 MOL     -0.002631
     17 H6          3.7990   -4.5280    3.1540 hc        1 MOL      0.008569
     18 H7          3.4440   -2.9030    3.4290 hc        1 MOL      0.008569
     19 N2          1.2070   -4.7120    0.1850 n         1 MOL      0.045737
     20 C7          0.8530   -5.4290   -1.0200 c3        1 MOL     -0.281509
     21 C8          1.9420   -5.2380   -2.1850 c         1 MOL      0.626720
     22 O5          2.2290   -6.1060   -3.0270 o         1 MOL     -0.605002
     23 C9         -0.6190   -5.0150   -1.3820 c3        1 MOL      0.175388
     24 C10        -1.6990   -5.2820   -0.3300 c3        1 MOL     -0.060029
     25 C11        -1.0160   -5.6770   -2.7620 c3        1 MOL     -0.252788
     26 C12        -3.1060   -4.9600   -0.7960 c3        1 MOL     -0.089090
     27 H8          0.7890   -3.7890    0.2140 hn        1 MOL      0.114521
     28 H9          0.7720   -6.4960   -0.7800 h1        1 MOL      0.106476
     29 H10        -0.7630   -3.9570   -1.5710 hc        1 MOL      0.037413
     30 H11        -1.4560   -4.7910    0.6180 hc        1 MOL     -0.000398
     31 H12        -1.7250   -6.3570   -0.2050 hc        1 MOL     -0.000398
     32 H13        -0.3230   -5.4340   -3.5650 hc        1 MOL      0.058391
     33 H14        -0.9210   -6.7460   -2.6130 hc        1 MOL      0.058391
     34 H15        -2.0190   -5.4560   -3.1290 hc        1 MOL      0.058391
     35 H16        -3.3020   -5.6600   -1.6030 hc        1 MOL      0.033396
     36 H17        -3.9040   -5.0080   -0.0560 hc        1 MOL      0.033396
     37 H18        -3.1040   -3.9030   -1.0460 hc        1 MOL      0.033396
     38 N3          2.7210   -4.1640   -2.2570 n         1 MOL     -0.370193
     39 C13         3.5020   -3.7140   -3.3890 c3        1 MOL      0.114117
     40 C14         5.0240   -3.3880   -3.0890 c         1 MOL      0.382997
     41 O6          5.8210   -3.2750   -4.0320 o         1 MOL     -0.534257
     42 C15         2.7120   -2.5890   -4.1750 c3        1 MOL     -0.184257
     43 C16         2.2600   -1.4120   -3.2930 c         1 MOL      0.682949
     44 O7          2.6730   -1.3910   -2.1170 o         1 MOL     -0.678790
     45 O8          1.4310   -0.5610   -3.7580 o         1 MOL     -0.678790
     46 H19         2.6900   -3.5270   -1.4760 hn        1 MOL      0.199916
     47 H20         3.5620   -4.5470   -4.0850 h1        1 MOL      0.064680
     48 H21         1.8650   -3.0420   -4.6840 hc        1 MOL      0.048242
     49 H22         3.3480   -2.2660   -4.9970 hc        1 MOL      0.048242
     50 N4          5.3780   -3.1960   -1.7920 n         1 MOL     -0.188248
     51 C17         6.7350   -2.8460   -1.4760 c3        1 MOL     -0.133774
     52 C18         7.1380   -1.3900   -1.7950 c         1 MOL      0.312071
     53 O9          8.3570   -1.1440   -2.0150 o         1 MOL     -0.571922
     54 H23         4.7140   -3.3570   -1.0440 hn        1 MOL      0.149739
     55 H24         7.4930   -3.5010   -1.9050 h1        1 MOL      0.103551
     56 H25         6.8070   -2.9780   -0.3980 h1        1 MOL      0.103551
     57 N5          6.1930   -0.4690   -1.9250 n         1 MOL      0.089504
     58 C19         6.5120    0.8710   -2.3250 c3        1 MOL     -0.092000
     59 C20         6.9950    1.7450   -1.1530 c         1 MOL      0.449894
     60 O10         7.5330    2.8240   -1.3630 o         1 MOL     -0.547125
     61 C21         5.4130    1.6370   -3.0370 c3        1 MOL     -0.138950
     62 C22         4.1210    1.6990   -2.2140 c         1 MOL      0.803563
     63 O11         4.1210    1.1880   -1.0260 o         1 MOL     -0.703105
     64 O12         3.1770    2.3840   -2.6640 o         1 MOL     -0.703105
     65 H26         5.2110   -0.6890   -1.8170 hn        1 MOL      0.040996
     66 H27         7.3630    0.7590   -3.0050 h1        1 MOL      0.107248
     67 H28         5.2370    1.2030   -4.0200 hc        1 MOL      0.040521
     68 H29         5.6430    2.6850   -3.2250 hc        1 MOL      0.040521
     69 N6          6.8930    1.3590    0.1500 n         1 MOL     -0.320220
     70 C23         7.1410    2.2320    1.2190 c3        1 MOL     -0.104491
     71 C24         6.0380    3.2600    1.6290 c         1 MOL      0.383385
     72 O13         6.4150    4.0850    2.4450 o         1 MOL     -0.584244
     73 H30         6.4000    0.5020    0.3560 hn        1 MOL      0.241909
     74 H31         8.0080    2.8700    1.0370 h1        1 MOL      0.086382
     75 H32         7.3790    1.6020    2.0780 h1        1 MOL      0.086382
     76 N7          4.8670    3.3050    0.9850 n         1 MOL     -0.016388
     77 C25         3.7150    4.1350    1.4060 c3        1 MOL      0.034841
     78 C26         2.4820    3.2280    1.5200 c         1 MOL      0.179123
     79 O14         2.4850    2.0500    1.1680 o         1 MOL     -0.323460
     80 C27         3.5370    5.3860    0.4100 c3        1 MOL     -0.060458
     81 C28         4.8100    6.0510    0.0410 c3        1 MOL     -0.439393
     82 C29         4.5870    7.4190   -0.5690 c         1 MOL      0.775651
     83 N8          5.6090    8.2230   -0.7660 n         1 MOL     -0.846066
     84 O15         3.5040    7.9280   -0.8660 o         1 MOL     -0.594256
     85 H33         4.7220    2.6200    0.2630 hn        1 MOL      0.121156
     86 H34         3.9870    4.5990    2.3450 h1        1 MOL      0.065346
     87 H35         2.8870    6.1500    0.8360 hc        1 MOL      0.071121
     88 H36         3.0070    5.2340   -0.5320 hc        1 MOL      0.071121
     89 H37         5.2520    5.4910   -0.7790 hc        1 MOL      0.151861
     90 H38         5.4120    6.2070    0.9390 hc        1 MOL      0.151861
     91 H39         6.5110    7.8190   -0.5680 hn        1 MOL      0.361085
     92 H40         5.3750    9.1930   -0.9090 hn        1 MOL      0.361085
     93 N9          1.3280    3.7380    2.0620 n         1 MOL     -0.281640
     94 C30         0.0530    2.9420    2.4050 c3        1 MOL      0.081496
     95 C31        -1.0760    3.3460    1.4220 c         1 MOL      0.367818
     96 O16        -1.3960    4.4790    1.3840 o         1 MOL     -0.555597
     97 C32        -0.3960    3.2700    3.8640 c3        1 MOL      0.564409
     98 C33        -1.4850    2.3540    4.2710 c3        1 MOL     -0.322059
     99 C34         0.7620    3.2120    4.8820 c3        1 MOL     -0.322059
    100 H41         1.2940    4.7000    2.3610 hn        1 MOL      0.223601
    101 H42         0.1850    1.8700    2.2190 h1        1 MOL     -0.043246
    102 H43        -0.8120    4.2790    3.8760 hc        1 MOL     -0.117999
    103 H44        -1.1670    1.3290    4.4910 hc        1 MOL      0.045403
    104 H45        -1.7090    2.7510    5.2590 hc        1 MOL      0.045403
    105 H46        -2.4080    2.4700    3.6990 hc        1 MOL      0.045403
    106 H47         0.3120    3.2930    5.8690 hc        1 MOL      0.045403
    107 H48         1.2470    2.2380    4.7690 hc        1 MOL      0.045403
    108 H49         1.4670    4.0010    4.6230 hc        1 MOL      0.045403
    109 N10        -1.5610    2.4040    0.6360 n         1 MOL     -0.145519
    110 C35        -2.7430    2.5600   -0.1960 c3        1 MOL      0.053357
    111 C36        -4.0940    2.4220    0.5130 c         1 MOL      0.410436
    112 O17        -4.2030    1.8800    1.6550 o         1 MOL     -0.438939
    113 C37        -2.5040    1.6940   -1.4450 c3        1 MOL     -0.191990
    114 C38        -3.5020    1.7470   -2.4590 c         1 MOL      0.685196
    115 N11        -3.5220    2.7500   -3.2830 n         1 MOL     -0.709957
    116 O18        -4.3380    0.8300   -2.5510 o         1 MOL     -0.532297
    117 H50        -1.0980    1.5140    0.6170 hn        1 MOL      0.134824
    118 H51        -2.7730    3.6090   -0.4850 h1        1 MOL      0.045935
    119 H52        -2.3430    0.6600   -1.1290 hc        1 MOL      0.087053
    120 H53        -1.5400    1.8460   -1.9310 hc        1 MOL      0.087053
    121 H54        -2.9920    3.5840   -3.1030 hn        1 MOL      0.338669
    122 H55        -4.3160    2.7970   -3.9070 hn        1 MOL      0.338669
    123 N12        -5.2310    2.7770   -0.1590 n         1 MOL     -0.402130
    124 C39        -6.5230    2.4890    0.3600 c3        1 MOL      0.400260
    125 C40        -6.8100    1.0070    0.5960 c         1 MOL      0.114372
    126 O19        -7.6430    0.7510    1.4260 o         1 MOL     -0.542603
    127 C41        -7.6170    3.1470   -0.4760 c3        1 MOL     -0.416802
    128 C42        -7.2880    3.1110   -2.0110 ca        1 MOL      0.297218
    129 C43        -6.6910    4.2140   -2.6150 ca        1 MOL     -0.345866
    130 C44        -7.3290    1.9070   -2.7270 ca        1 MOL     -0.345866
    131 C45        -6.2070    4.1440   -3.9390 ca        1 MOL     -0.074921
    132 C46        -7.0330    1.8720   -4.0990 ca        1 MOL     -0.074921
    133 C47        -6.5220    3.0310   -4.7430 ca        1 MOL      0.159142
    134 O20        -5.8430    2.9190   -5.9270 oh        1 MOL     -0.560517
    135 H56        -5.1770    2.9910   -1.1450 hn        1 MOL      0.139600
    136 H57        -6.6110    3.0070    1.3120 h1        1 MOL      0.022181
    137 H58        -7.6610    4.1930   -0.1880 hc        1 MOL      0.121333
    138 H59        -8.5780    2.6520   -0.2990 hc        1 MOL      0.121333
    139 H60        -6.4040    5.0450   -1.9890 ha        1 MOL      0.150266
    140 H61        -7.6540    0.9860   -2.2610 ha        1 MOL      0.150266
    141 H62        -5.7150    4.9880   -4.3940 ha        1 MOL      0.102582
    142 H63        -7.0440    0.9290   -4.6060 ha        1 MOL      0.102582
    143 H64        -6.0540    2.1040   -6.3850 ho        1 MOL      0.439018
    144 N13        -6.1800    0.0790   -0.0530 n         1 MOL      0.505804
    145 C48        -6.3880   -1.4230    0.2280 c3        1 MOL     -0.642771
    146 C49        -5.6700   -1.8610    1.5010 c         1 MOL      0.685096
    147 O21        -5.8130   -3.0110    1.9740 o         1 MOL     -0.581873
    148 C50        -5.8790   -2.3670   -0.8400 c3        1 MOL      0.295275
    149 C51        -6.5660   -2.1820   -2.1790 c3        1 MOL     -0.169085
    150 C52        -8.1130   -2.2480   -2.2250 c         1 MOL      0.708064
    151 O22        -8.7540   -1.6250   -3.1350 o         1 MOL     -0.715740
    152 O23        -8.7390   -2.9630   -1.4460 o         1 MOL     -0.715740
    153 H65        -5.5210    0.3740   -0.7580 hn        1 MOL      0.034086
    154 H66        -7.4680   -1.5750    0.3590 h1        1 MOL      0.216351
    155 H67        -5.9970   -3.3930   -0.5200 hc        1 MOL     -0.018185
    156 H68        -4.8160   -2.1410   -0.9250 hc        1 MOL     -0.018185
    157 H69        -6.1370   -3.0060   -2.7560 hc        1 MOL     -0.022335
    158 H70        -6.2270   -1.2350   -2.5780 hc        1 MOL     -0.022335
    159 N14        -4.7920   -1.0040    2.0110 n         1 MOL     -0.334503
    160 C53        -3.8500   -1.3380    3.0330 c3        1 MOL      0.008968
    161 C54        -4.1080   -0.5310    4.3970 c         1 MOL      0.477877
    162 O24        -4.1290   -1.1550    5.4310 o         1 MOL     -0.586551
    163 C55        -2.4450   -0.9650    2.5030 c3        1 MOL     -0.017842
    164 C56        -1.9450   -1.7010    1.2850 c3        1 MOL     -0.131707
    165 C57        -0.5410   -1.3150    0.8480 c         1 MOL      0.852061
    166 O25         0.1740   -2.1660    0.3050 o         1 MOL     -0.749050
    167 O26        -0.1630   -0.1240    0.9720 o         1 MOL     -0.749050
    168 H71        -4.6760   -0.1690    1.4670 hn        1 MOL      0.045903
    169 H72        -3.7600   -2.3970    3.2300 h1        1 MOL      0.068303
    170 H73        -1.7650   -1.0630    3.3570 hc        1 MOL      0.052186
    171 H74        -2.4330    0.0890    2.1990 hc        1 MOL      0.052186
    172 H75        -2.5440   -1.3080    0.4650 hc        1 MOL      0.036574
    173 H76        -2.1800   -2.7690    1.3260 hc        1 MOL      0.036574
    174 N15        -4.2740    0.7430    4.3660 n         1 MOL     -0.104330
    175 C58        -4.8650    1.5410    5.4110 c3        1 MOL      0.016730
    176 H77        -4.8200    0.9960    6.3530 h1        1 MOL      0.019586
    177 H78        -4.3170    2.4780    5.5070 h1        1 MOL      0.019586
    178 H79        -5.9060    1.7510    5.1640 h1        1 MOL      0.019586
    179 H80        -4.1190    1.1140    3.4360 hn        1 MOL      0.111315
    180 Ca1         2.3590   -0.3200    0.1830 Ca        1 MOL      1.702669
    181 O27         1.9660   -0.7630    2.8730 oh        1 MOL     -0.887219
    182 O28         1.0910    1.0290   -1.8120 oh        1 MOL     -0.887219
    183 H81         1.4740   -1.4200    3.3720 ho        1 MOL      0.414717
    184 H82         1.2140    0.4160   -2.5340 ho        1 MOL      0.414717
    185 H83         2.5820   -0.3940    3.4970 ho        1 MOL      0.414717
    186 H84         1.6800    1.7590   -2.0070 ho        1 MOL      0.414717
    187 O29         4.4680    0.3410    2.1510 oh        1 MOL     -0.887219
    188 H85         4.3190    0.8940    2.9220 ho        1 MOL      0.414717
    189 H86         5.2500   -0.1720    2.3600 ho        1 MOL      0.414717
@<TRIPOS>BOND
     1    1    2 1   
     2    1    4 1   
     3    1    5 1   
     4    1    6 1   
     5    2    3 2   
     6    2    7 1   
     7    7    8 1   
     8    7   15 1   
     9    8    9 1   
    10    8   11 1   
    11    8   16 1   
    12    9   10 2   
    13    9   19 1   
    14   11   12 1   
    15   11   17 1   
    16   11   18 1   
    17   12   13 1   
    18   12   14 1   
    19   19   20 1   
    20   19   27 1   
    21   20   21 1   
    22   20   23 1   
    23   20   28 1   
    24   21   22 2   
    25   21   38 1   
    26   23   24 1   
    27   23   25 1   
    28   23   29 1   
    29   24   26 1   
    30   24   30 1   
    31   24   31 1   
    32   25   32 1   
    33   25   33 1   
    34   25   34 1   
    35   26   35 1   
    36   26   36 1   
    37   26   37 1   
    38   38   39 1   
    39   38   46 1   
    40   39   40 1   
    41   39   42 1   
    42   39   47 1   
    43   40   41 2   
    44   40   50 1   
    45   42   43 1   
    46   42   48 1   
    47   42   49 1   
    48   43   44 1   
    49   43   45 1   
    50   50   51 1   
    51   50   54 1   
    52   51   52 1   
    53   51   55 1   
    54   51   56 1   
    55   52   53 2   
    56   52   57 1   
    57   57   58 1   
    58   57   65 1   
    59   58   59 1   
    60   58   61 1   
    61   58   66 1   
    62   59   60 2   
    63   59   69 1   
    64   61   62 1   
    65   61   67 1   
    66   61   68 1   
    67   62   63 1   
    68   62   64 1   
    69   69   70 1   
    70   69   73 1   
    71   70   71 1   
    72   70   74 1   
    73   70   75 1   
    74   71   72 2   
    75   71   76 1   
    76   76   77 1   
    77   76   85 1   
    78   77   78 1   
    79   77   80 1   
    80   77   86 1   
    81   78   79 2   
    82   78   93 1   
    83   80   81 1   
    84   80   87 1   
    85   80   88 1   
    86   81   82 1   
    87   81   89 1   
    88   81   90 1   
    89   82   83 1   
    90   82   84 2   
    91   83   91 1   
    92   83   92 1   
    93   93   94 1   
    94   93  100 1   
    95   94   95 1   
    96   94   97 1   
    97   94  101 1   
    98   95   96 2   
    99   95  109 1   
   100   97   98 1   
   101   97   99 1   
   102   97  102 1   
   103   98  103 1   
   104   98  104 1   
   105   98  105 1   
   106   99  106 1   
   107   99  107 1   
   108   99  108 1   
   109  109  110 1   
   110  109  117 1   
   111  110  111 1   
   112  110  113 1   
   113  110  118 1   
   114  111  112 2   
   115  111  123 1   
   116  113  114 1   
   117  113  119 1   
   118  113  120 1   
   119  114  115 1   
   120  114  116 2   
   121  115  121 1   
   122  115  122 1   
   123  123  124 1   
   124  123  135 1   
   125  124  125 1   
   126  124  127 1   
   127  124  136 1   
   128  125  126 2   
   129  125  144 1   
   130  127  128 1   
   131  127  137 1   
   132  127  138 1   
   133  128  129 ar  
   134  128  130 ar  
   135  129  131 ar  
   136  129  139 1   
   137  130  132 ar  
   138  130  140 1   
   139  131  133 ar  
   140  131  141 1   
   141  132  133 ar  
   142  132  142 1   
   143  133  134 1   
   144  134  143 1   
   145  144  145 1   
   146  144  153 1   
   147  145  146 1   
   148  145  148 1   
   149  145  154 1   
   150  146  147 2   
   151  146  159 1   
   152  148  149 1   
   153  148  155 1   
   154  148  156 1   
   155  149  150 1   
   156  149  157 1   
   157  149  158 1   
   158  150  151 1   
   159  150  152 1   
   160  159  160 1   
   161  159  168 1   
   162  160  161 1   
   163  160  163 1   
   164  160  169 1   
   165  161  162 2   
   166  161  174 1   
   167  163  164 1   
   168  163  170 1   
   169  163  171 1   
   170  164  165 1   
   171  164  172 1   
   172  164  173 1   
   173  165  166 1   
   174  165  167 1   
   175  174  175 1   
   176  174  179 1   
   177  175  176 1   
   178  175  177 1   
   179  175  178 1   
   180  181  183 1   
   181  181  185 1   
   182  182  184 1   
   183  182  186 1   
   184  187  188 1   
   185  187  189 1   
@<TRIPOS>SUBSTRUCTURE
     1 MOL         1 TEMP              0 ****  ****    0 ROOT
