@<TRIPOS>MOLECULE
MOL
  175   173     1     0     0
SMALL
resp


@<TRIPOS>ATOM
      1 C1         -0.9210    3.0090    5.9290 c3        1 MOL     -0.313826
      2 C2         -1.2040    2.7840    4.4880 c         1 MOL      0.805066
      3 O1         -0.5430    3.3550    3.6400 o         1 MOL     -0.597223
      4 H1         -0.4900    2.1050    6.3590 hc        1 MOL      0.071359
      5 H2         -0.2160    3.8340    6.0370 hc        1 MOL      0.071359
      6 H3         -1.8480    3.2520    6.4480 hc        1 MOL      0.071359
      7 N1         -2.2130    1.9760    4.0580 n         1 MOL     -0.734155
      8 C3         -2.8210    1.9640    2.6810 c3        1 MOL      0.280324
      9 C4         -3.3510    3.3450    2.2770 c         1 MOL      0.527660
     10 O2         -4.2580    3.9070    2.9130 o         1 MOL     -0.599398
     11 C5         -3.8580    0.8360    2.5300 c3        1 MOL     -0.058690
     12 C6         -4.4830    0.7510    1.1020 c         1 MOL      0.461040
     13 O3         -5.6840    0.3250    1.0090 o         1 MOL     -0.513954
     14 O4         -3.7580    1.0230    0.1770 o         1 MOL     -0.513954
     15 H4         -2.6500    1.3830    4.7470 hn        1 MOL      0.317565
     16 H5         -2.0870    1.7420    1.8980 h1        1 MOL     -0.043471
     17 H6         -4.5980    0.8860    3.3260 hc        1 MOL      0.004884
     18 H7         -3.2720   -0.0780    2.6850 hc        1 MOL      0.004884
     19 N2         -2.8810    3.8180    1.1000 n         1 MOL     -0.302846
     20 C7         -3.3320    5.0010    0.3700 c3        1 MOL      0.222337
     21 C8         -4.3700    4.8000   -0.7440 c         1 MOL      0.240718
     22 O5         -4.9420    5.8430   -1.1880 o         1 MOL     -0.540380
     23 C9         -1.9900    5.5330   -0.2630 c3        1 MOL     -0.492500
     24 H8         -2.1910    3.2890    0.6040 hn        1 MOL      0.227045
     25 H9         -3.6780    5.7300    1.1140 h1        1 MOL      0.038103
     26 H10        -1.2040    5.4940    0.4860 hc        1 MOL      0.142855
     27 H11        -1.6880    4.8510   -1.0700 hc        1 MOL      0.142855
     28 H12        -2.2410    6.4690   -0.7570 hc        1 MOL      0.142855
     29 N3         -4.5950    3.5840   -1.2330 n         1 MOL     -0.032598
     30 C10        -5.4690    3.3090   -2.3820 c3        1 MOL      0.067170
     31 C11        -6.7450    2.5000   -2.1540 c         1 MOL      0.367026
     32 O6         -7.5200    2.1240   -3.0590 o         1 MOL     -0.495974
     33 C12        -4.6720    2.8810   -3.6160 c3        1 MOL     -0.097280
     34 C13        -3.6290    1.9160   -3.2580 c         1 MOL      0.794950
     35 O7         -2.5270    2.2660   -2.8360 o         1 MOL     -0.783215
     36 O8         -3.8160    0.7100   -3.3020 o         1 MOL     -0.783215
     37 H13        -4.0900    2.8200   -0.8110 hn        1 MOL      0.113868
     38 H14        -5.9100    4.2750   -2.6530 h1        1 MOL      0.070806
     39 H15        -4.1940    3.7530   -4.0500 hc        1 MOL      0.010265
     40 H16        -5.3230    2.3920   -4.3490 hc        1 MOL      0.010265
     41 N4         -7.0530    2.1810   -0.8630 n         1 MOL     -0.310692
     42 C14        -8.3340    1.4190   -0.5530 c3        1 MOL     -0.113316
     43 C15        -8.3820   -0.0670   -0.9440 c         1 MOL      0.548617
     44 O9         -9.4670   -0.6280   -1.1970 o         1 MOL     -0.599447
     45 H17        -6.2990    2.3570   -0.2070 hn        1 MOL      0.208887
     46 H18        -9.1090    1.9670   -1.0910 h1        1 MOL      0.085856
     47 H19        -8.5440    1.3520    0.5210 h1        1 MOL      0.085856
     48 N5         -7.1850   -0.7210   -1.0090 n         1 MOL     -0.172763
     49 C16        -7.0140   -2.1880   -1.2130 c3        1 MOL     -0.008080
     50 C17        -6.6430   -2.9730    0.0310 c         1 MOL      0.319118
     51 O10        -6.7710   -4.2180    0.0680 o         1 MOL     -0.539799
     52 C18        -6.0490   -2.4430   -2.3820 c3        1 MOL     -0.285590
     53 C19        -4.6100   -2.5560   -1.9430 c         1 MOL      0.720541
     54 N6         -4.0550   -3.7500   -2.1540 n         1 MOL     -0.834025
     55 O11        -4.0680   -1.6130   -1.3890 o         1 MOL     -0.607474
     56 H20        -6.4950   -0.2070   -0.4810 hn        1 MOL      0.125579
     57 H21        -7.9570   -2.6130   -1.5350 h1        1 MOL      0.122333
     58 H22        -6.1270   -1.5970   -3.0570 hc        1 MOL      0.102722
     59 H23        -6.3120   -3.3830   -2.8470 hc        1 MOL      0.102722
     60 H24        -4.7150   -4.5170   -2.2380 hn        1 MOL      0.370096
     61 H25        -3.1130   -3.9680   -1.8910 hn        1 MOL      0.370096
     62 N7         -6.1920   -2.3070    1.1280 n         1 MOL      0.004178
     63 C20        -5.9150   -2.9060    2.4810 c3        1 MOL     -0.357355
     64 C21        -4.6440   -3.7090    2.5400 c         1 MOL      0.608359
     65 O12        -4.4200   -4.4650    3.4310 o         1 MOL     -0.566762
     66 H26        -6.2380   -1.3070    1.0230 hn        1 MOL      0.069326
     67 H27        -6.6880   -3.5970    2.8450 h1        1 MOL      0.145215
     68 H28        -5.6400   -2.1300    3.1970 h1        1 MOL      0.145215
     69 N8         -3.7180   -3.4060    1.5920 n         1 MOL     -0.328744
     70 C22        -2.3040   -3.8930    1.6480 c3        1 MOL      0.116865
     71 C23        -1.3040   -2.7630    1.4480 c         1 MOL      0.398006
     72 O13        -1.6620   -1.7310    0.8900 o         1 MOL     -0.476749
     73 C24        -1.9810   -5.1000    0.8020 c3        1 MOL      0.165470
     74 C25        -3.0130   -6.0880    0.5170 c3        1 MOL     -0.172248
     75 O14        -1.6300   -4.6080   -0.4670 oh        1 MOL     -0.521171
     76 H29        -3.9410   -2.7160    0.8880 hn        1 MOL      0.260419
     77 H30        -2.1950   -4.2240    2.6820 h1        1 MOL      0.029563
     78 H31        -1.1130   -5.6220    1.1970 h1        1 MOL      0.026687
     79 H32        -1.5950   -5.3600   -1.0690 ho        1 MOL      0.374782
     80 H33        -2.7240   -6.8660   -0.1980 hc        1 MOL      0.045502
     81 H34        -3.3680   -6.6220    1.3900 hc        1 MOL      0.045502
     82 H35        -3.8050   -5.4980    0.0570 hc        1 MOL      0.045502
     83 N9         -0.0170   -3.0260    1.8730 n         1 MOL     -0.396142
     84 C26         1.0640   -2.0660    1.4900 c3        1 MOL     -0.031962
     85 C27         2.0910   -2.6840    0.5770 c         1 MOL      0.446627
     86 O15         2.6520   -3.7110    0.8380 o         1 MOL     -0.567865
     87 C28         1.7280   -1.3960    2.7640 c3        1 MOL      0.418220
     88 C29         2.3240   -2.4580    3.7200 c3        1 MOL     -0.187226
     89 C30         0.6050   -0.5890    3.3970 c3        1 MOL     -0.175650
     90 C31         3.1660   -1.8940    4.8520 c3        1 MOL     -0.100539
     91 H36         0.1570   -3.8490    2.4260 hn        1 MOL      0.270394
     92 H37         0.6310   -1.2480    0.8950 h1        1 MOL     -0.062458
     93 H38         2.5250   -0.7240    2.4340 hc        1 MOL     -0.158666
     94 H39         3.0120   -3.0750    3.1510 hc        1 MOL      0.049214
     95 H40         1.5400   -3.1150    4.0960 hc        1 MOL      0.049214
     96 H41         0.1370    0.0600    2.6610 hc        1 MOL      0.038037
     97 H42        -0.0700   -1.2600    3.9190 hc        1 MOL      0.038037
     98 H43         0.9930   -0.0460    4.2640 hc        1 MOL      0.038037
     99 H44         3.7890   -1.1090    4.4120 hc        1 MOL      0.018380
    100 H45         2.5210   -1.4990    5.6300 hc        1 MOL      0.018380
    101 H46         3.9140   -2.5410    5.3090 hc        1 MOL      0.018380
    102 N10         2.3120   -2.0030   -0.5670 n         1 MOL     -0.435715
    103 C32         3.5300   -2.2750   -1.3300 c3        1 MOL      0.525781
    104 C33         4.8220   -1.7230   -0.6020 c         1 MOL      0.153447
    105 O16         4.7700   -1.1420    0.4780 o         1 MOL     -0.281663
    106 C34         3.4740   -1.5410   -2.7200 c3        1 MOL     -0.657142
    107 C35         2.1710   -1.8490   -3.5200 c         1 MOL      0.844731
    108 O17         1.4530   -2.8040   -3.2080 o         1 MOL     -0.711829
    109 O18         1.7680   -1.1560   -4.5580 o         1 MOL     -0.711829
    110 H47         1.8010   -1.1350   -0.6600 hn        1 MOL      0.439956
    111 H48         3.6280   -3.3520   -1.4530 h1        1 MOL     -0.005816
    112 H49         4.2800   -1.9120   -3.3410 hc        1 MOL      0.113980
    113 H50         3.5340   -0.4600   -2.6480 hc        1 MOL      0.113980
    114 N11         5.9960   -2.0350   -1.1720 n         1 MOL     -0.453786
    115 C36         7.1980   -1.3570   -0.6710 c3        1 MOL      0.375779
    116 C37         7.1480    0.1670   -0.5050 c         1 MOL      0.236077
    117 O19         7.5650    0.6390    0.5420 o         1 MOL     -0.464580
    118 C38         8.3330   -1.7700   -1.5910 c3        1 MOL     -0.029913
    119 C39         9.7360   -1.2830   -1.2310 ca        1 MOL      0.109469
    120 C40        10.3430   -1.7750   -0.0240 ca        1 MOL     -0.233753
    121 C41        10.3650   -0.3530   -2.0700 ca        1 MOL     -0.233753
    122 C42        11.6190   -1.2350    0.2690 ca        1 MOL     -0.037032
    123 C43        11.6780    0.0650   -1.7670 ca        1 MOL     -0.037032
    124 C44        12.3170   -0.3570   -0.5850 ca        1 MOL     -0.180930
    125 H51         6.0410   -2.6840   -1.9460 hn        1 MOL      0.272248
    126 H52         7.3480   -1.8520    0.2840 h1        1 MOL      0.012139
    127 H53         8.1070   -1.4200   -2.6070 hc        1 MOL     -0.001368
    128 H54         8.3750   -2.8510   -1.5680 hc        1 MOL     -0.001368
    129 H55         9.7840   -2.3980    0.6620 ha        1 MOL      0.139094
    130 H56         9.8830    0.0090   -2.9700 ha        1 MOL      0.139094
    131 H57        12.1190   -1.5640    1.1670 ha        1 MOL      0.088715
    132 H58        12.2640    0.7360   -2.3700 ha        1 MOL      0.088715
    133 H59        13.2970    0.0110   -0.3280 ha        1 MOL      0.120511
    134 N12         6.7190    1.0170   -1.4810 n         1 MOL     -0.013371
    135 C45         6.6220    2.4670   -1.2560 c3        1 MOL      0.076360
    136 C46         5.7640    2.8970   -0.0660 c         1 MOL      0.344468
    137 O20         6.1970    3.8670    0.5970 o         1 MOL     -0.518616
    138 C47         6.1410    3.0630   -2.6270 c3        1 MOL     -0.216176
    139 C48         5.7580    1.8570   -3.5060 c3        1 MOL      0.047525
    140 C49         6.7020    0.7890   -2.9470 c3        1 MOL     -0.099478
    141 H60         7.5880    2.9150   -1.0530 h1        1 MOL      0.044447
    142 H61         5.2620    3.6600   -2.3700 hc        1 MOL      0.076922
    143 H62         6.9740    3.6190   -3.0640 hc        1 MOL      0.076922
    144 H63         4.7270    1.5720   -3.3240 hc        1 MOL      0.019044
    145 H64         5.9930    2.0110   -4.5560 hc        1 MOL      0.019044
    146 H65         6.2740   -0.1750   -3.2160 h1        1 MOL      0.060469
    147 H66         7.6800    0.9340   -3.3970 h1        1 MOL      0.060469
    148 N13         4.6440    2.2300    0.3160 n         1 MOL     -0.137382
    149 C50         3.8220    2.6200    1.4160 c3        1 MOL     -0.051998
    150 C51         4.4370    2.2070    2.8370 c         1 MOL      0.374789
    151 O21         4.2280    2.9450    3.7900 o         1 MOL     -0.535372
    152 C52         2.4460    1.9570    1.0780 c3        1 MOL      0.104721
    153 C53         1.5690    2.5700    0.0030 c3        1 MOL     -0.246945
    154 C54         0.3940    1.7250   -0.4340 c         1 MOL      0.829892
    155 O22         0.6010    0.4920   -0.7190 o         1 MOL     -0.749926
    156 O23        -0.7720    2.1640   -0.4960 o         1 MOL     -0.749926
    157 H67         4.5880    1.3370   -0.1600 hn        1 MOL      0.174914
    158 H68         3.7410    3.7070    1.3500 h1        1 MOL      0.098726
    159 H69         1.8150    1.8520    1.9700 hc        1 MOL      0.017102
    160 H70         2.6890    0.9350    0.7800 hc        1 MOL      0.017102
    161 H71         2.1200    2.8350   -0.8960 hc        1 MOL      0.044515
    162 H72         1.3510    3.5470    0.4270 hc        1 MOL      0.044515
    163 N14         5.2100    1.1140    2.8230 n         1 MOL      0.093439
    164 C55         6.1260    0.6320    3.8910 c3        1 MOL     -0.325381
    165 H73         5.8580   -0.3890    4.1660 h1        1 MOL      0.113276
    166 H74         7.1530    0.6510    3.5270 h1        1 MOL      0.113276
    167 H75         6.0390    1.2770    4.7650 h1        1 MOL      0.113276
    168 H76         5.2530    0.6470    1.9330 hn        1 MOL      0.000779
    169 Ca1        -1.9530    0.0370   -1.5000 Ca        1 MOL      1.735912
    170 O24        -0.4340    0.2550   -3.6300 oh        1 MOL     -0.870649
    171 H77        -0.7110    0.9720   -4.2160 ho        1 MOL      0.403152
    172 H78         0.3440   -0.0990   -4.0420 ho        1 MOL      0.403152
    173 O25        -0.7520   -2.4010   -1.8260 oh        1 MOL     -0.870649
    174 H79        -0.9920   -3.1700   -1.3170 ho        1 MOL      0.403152
    175 H80         0.1150   -2.5980   -2.1810 ho        1 MOL      0.403152
@<TRIPOS>BOND
     1    1    2 1   
     2    1    4 1   
     3    1    5 1   
     4    1    6 1   
     5    2    3 2   
     6    2    7 1   
     7    7    8 1   
     8    7   15 1   
     9    8    9 1   
    10    8   11 1   
    11    8   16 1   
    12    9   10 2   
    13    9   19 1   
    14   11   12 1   
    15   11   17 1   
    16   11   18 1   
    17   12   13 1   
    18   12   14 1   
    19   19   20 1   
    20   19   24 1   
    21   20   21 1   
    22   20   23 1   
    23   20   25 1   
    24   21   22 2   
    25   21   29 1   
    26   23   26 1   
    27   23   27 1   
    28   23   28 1   
    29   29   30 1   
    30   29   37 1   
    31   30   31 1   
    32   30   33 1   
    33   30   38 1   
    34   31   32 2   
    35   31   41 1   
    36   33   34 1   
    37   33   39 1   
    38   33   40 1   
    39   34   35 1   
    40   34   36 1   
    41   41   42 1   
    42   41   45 1   
    43   42   43 1   
    44   42   46 1   
    45   42   47 1   
    46   43   44 2   
    47   43   48 1   
    48   48   49 1   
    49   48   56 1   
    50   49   50 1   
    51   49   52 1   
    52   49   57 1   
    53   50   51 2   
    54   50   62 1   
    55   52   53 1   
    56   52   58 1   
    57   52   59 1   
    58   53   54 1   
    59   53   55 2   
    60   54   60 1   
    61   54   61 1   
    62   62   63 1   
    63   62   66 1   
    64   63   64 1   
    65   63   67 1   
    66   63   68 1   
    67   64   65 2   
    68   64   69 1   
    69   69   70 1   
    70   69   76 1   
    71   70   71 1   
    72   70   73 1   
    73   70   77 1   
    74   71   72 2   
    75   71   83 1   
    76   73   74 1   
    77   73   75 1   
    78   73   78 1   
    79   74   80 1   
    80   74   81 1   
    81   74   82 1   
    82   75   79 1   
    83   83   84 1   
    84   83   91 1   
    85   84   85 1   
    86   84   87 1   
    87   84   92 1   
    88   85   86 2   
    89   85  102 1   
    90   87   88 1   
    91   87   89 1   
    92   87   93 1   
    93   88   90 1   
    94   88   94 1   
    95   88   95 1   
    96   89   96 1   
    97   89   97 1   
    98   89   98 1   
    99   90   99 1   
   100   90  100 1   
   101   90  101 1   
   102  102  103 1   
   103  102  110 1   
   104  103  104 1   
   105  103  106 1   
   106  103  111 1   
   107  104  105 2   
   108  104  114 1   
   109  106  107 1   
   110  106  112 1   
   111  106  113 1   
   112  107  108 1   
   113  107  109 1   
   114  114  115 1   
   115  114  125 1   
   116  115  116 1   
   117  115  118 1   
   118  115  126 1   
   119  116  117 2   
   120  116  134 1   
   121  118  119 1   
   122  118  127 1   
   123  118  128 1   
   124  119  120 ar  
   125  119  121 ar  
   126  120  122 ar  
   127  120  129 1   
   128  121  123 ar  
   129  121  130 1   
   130  122  124 ar  
   131  122  131 1   
   132  123  124 ar  
   133  123  132 1   
   134  124  133 1   
   135  134  135 1   
   136  134  140 1   
   137  135  136 1   
   138  135  138 1   
   139  135  141 1   
   140  136  137 2   
   141  136  148 1   
   142  138  139 1   
   143  138  142 1   
   144  138  143 1   
   145  139  140 1   
   146  139  144 1   
   147  139  145 1   
   148  140  146 1   
   149  140  147 1   
   150  148  149 1   
   151  148  157 1   
   152  149  150 1   
   153  149  152 1   
   154  149  158 1   
   155  150  151 2   
   156  150  163 1   
   157  152  153 1   
   158  152  159 1   
   159  152  160 1   
   160  153  154 1   
   161  153  161 1   
   162  153  162 1   
   163  154  155 1   
   164  154  156 1   
   165  163  164 1   
   166  163  168 1   
   167  164  165 1   
   168  164  166 1   
   169  164  167 1   
   170  170  171 1   
   171  170  172 1   
   172  173  174 1   
   173  173  175 1   
@<TRIPOS>SUBSTRUCTURE
     1 MOL         1 TEMP              0 ****  ****    0 ROOT
