@<TRIPOS>MOLECULE
MOL
  182   178     1     0     0
SMALL
resp


@<TRIPOS>ATOM
      1 C1         -1.1540   -4.1240    5.5960 c3        1 MOL     -0.305331
      2 C2         -0.7460   -3.6610    4.1960 c         1 MOL      0.679419
      3 O1         -1.5530   -3.6370    3.2600 o         1 MOL     -0.621865
      4 H1         -2.1720   -4.5110    5.5690 hc        1 MOL      0.078839
      5 H2         -0.4770   -4.9100    5.9320 hc        1 MOL      0.078839
      6 H3         -1.1050   -3.2820    6.2870 hc        1 MOL      0.078839
      7 N1          0.5170   -3.3010    4.0150 n         1 MOL     -0.474005
      8 C3          1.1050   -2.8890    2.8020 c3        1 MOL      0.123407
      9 C4          1.3610   -4.0910    1.8830 c         1 MOL      0.365072
     10 O2          2.2510   -4.9460    2.1280 o         1 MOL     -0.500502
     11 C5          2.4480   -2.1020    3.0370 c3        1 MOL     -0.221483
     12 C6          2.9290   -1.2630    1.8930 c         1 MOL      0.864985
     13 O3          2.4010   -1.3910    0.8230 o         1 MOL     -0.796011
     14 O4          3.9300   -0.5530    2.0510 o         1 MOL     -0.796011
     15 H4          1.0500   -3.1660    4.8610 hn        1 MOL      0.278294
     16 H5          0.4000   -2.1890    2.3660 h1        1 MOL      0.016768
     17 H6          3.1610   -2.8600    3.3420 hc        1 MOL      0.066886
     18 H7          2.3110   -1.4170    3.8790 hc        1 MOL      0.066886
     19 N2          0.5780   -4.2250    0.7870 n         1 MOL     -0.096969
     20 C7          0.5980   -5.4900    0.0180 c3        1 MOL     -0.169562
     21 C8          1.8630   -5.7380   -0.7180 c         1 MOL      0.505904
     22 O5          2.2570   -6.9130   -0.9390 o         1 MOL     -0.558899
     23 C9         -0.6640   -5.4480   -0.8970 c3        1 MOL     -0.129141
     24 C10        -1.9510   -5.6310   -0.1050 c3        1 MOL      0.072257
     25 C11        -3.2340   -5.7100   -1.0090 c3        1 MOL     -0.189859
     26 C12        -4.4930   -6.2500   -0.3240 c3        1 MOL      0.148735
     27 N3         -5.6620   -6.3800   -1.2520 n4        1 MOL     -0.468241
     28 H8         -0.0790   -3.5080    0.5490 hn        1 MOL      0.210149
     29 H9          0.5450   -6.2830    0.7590 h1        1 MOL      0.128186
     30 H10        -0.5000   -6.2060   -1.6670 hc        1 MOL      0.060544
     31 H11        -0.7900   -4.5190   -1.4600 hc        1 MOL      0.060544
     32 H12        -2.1370   -4.7450    0.4940 hc        1 MOL      0.027080
     33 H13        -1.8700   -6.5300    0.5080 hc        1 MOL      0.027080
     34 H14        -3.0650   -6.2370   -1.9490 hc        1 MOL      0.048746
     35 H15        -3.4030   -4.6790   -1.3190 hc        1 MOL      0.048746
     36 H16        -4.7170   -5.6410    0.5560 hx        1 MOL      0.078515
     37 H17        -4.3080   -7.1740    0.2220 hx        1 MOL      0.078515
     38 H18        -5.9030   -5.4450   -1.5410 hn        1 MOL      0.355172
     39 H19        -5.4690   -6.9080   -2.0930 hn        1 MOL      0.355172
     40 H20        -6.5160   -6.6750   -0.8030 hn        1 MOL      0.355172
     41 N4          2.5470   -4.6980   -1.2130 n         1 MOL     -0.321284
     42 C13         3.8250   -4.7970   -1.9930 c3        1 MOL      0.155564
     43 C14         5.0460   -4.2530   -1.1330 c         1 MOL      0.385002
     44 O6          6.1820   -4.5210   -1.5080 o         1 MOL     -0.517244
     45 C15         3.7740   -4.0710   -3.3210 c3        1 MOL     -0.265539
     46 C16         3.4660   -2.6020   -3.1820 c         1 MOL      0.855671
     47 O7          3.5280   -1.8650   -4.1970 o         1 MOL     -0.746868
     48 O8          3.0960   -2.1150   -2.0890 o         1 MOL     -0.746868
     49 H21         2.2060   -3.7800   -0.9880 hn        1 MOL      0.177322
     50 H22         3.9920   -5.8600   -2.1880 h1        1 MOL      0.080953
     51 H23         3.0040   -4.5550   -3.9200 hc        1 MOL      0.064921
     52 H24         4.7410   -4.1820   -3.8220 hc        1 MOL      0.064921
     53 N5          4.7620   -3.5050   -0.0300 n         1 MOL     -0.106140
     54 C17         5.7360   -2.9390    0.9190 c3        1 MOL     -0.046174
     55 C18         6.5340   -1.6790    0.3920 c         1 MOL      0.443115
     56 O9          7.7140   -1.5950    0.7230 o         1 MOL     -0.551913
     57 H25         3.8070   -3.2430    0.1400 hn        1 MOL      0.033139
     58 H26         6.4520   -3.7180    1.2040 h1        1 MOL      0.080189
     59 H27         5.3040   -2.7170    1.8920 h1        1 MOL      0.080189
     60 N6          5.9420   -0.8640   -0.4730 n         1 MOL     -0.126742
     61 C19         6.5880    0.2660   -1.0830 c3        1 MOL     -0.050391
     62 C20         6.8410    1.4640   -0.1890 c         1 MOL      0.344061
     63 O10         7.5220    2.3870   -0.6370 o         1 MOL     -0.472920
     64 C21         5.8830    0.4730   -2.4620 c3        1 MOL     -0.216253
     65 C22         4.5560    1.1910   -2.3120 c         1 MOL      0.768875
     66 N7          4.3680    2.2780   -2.9850 n         1 MOL     -0.794087
     67 O11         3.6120    0.8410   -1.6610 o         1 MOL     -0.648387
     68 H28         4.9960   -1.1120   -0.7290 hn        1 MOL      0.131388
     69 H29         7.5870   -0.0320   -1.4020 h1        1 MOL      0.129517
     70 H30         5.7100   -0.4990   -2.9190 hc        1 MOL      0.088416
     71 H31         6.5530    1.0820   -3.0700 hc        1 MOL      0.088416
     72 H32         5.1300    2.7010   -3.4940 hn        1 MOL      0.364657
     73 H33         3.5250    2.8050   -2.7740 hn        1 MOL      0.364657
     74 N8          6.2060    1.5000    1.0090 n         1 MOL     -0.232733
     75 C23         6.1250    2.5590    1.9510 c3        1 MOL     -0.089601
     76 C24         4.7650    3.3170    1.9890 c         1 MOL      0.504866
     77 O12         4.7210    4.3760    2.5600 o         1 MOL     -0.518381
     78 H34         5.7650    0.6420    1.3170 hn        1 MOL      0.282268
     79 H35         6.8940    3.2780    1.6610 h1        1 MOL      0.099751
     80 H36         6.4700    2.3240    2.9570 h1        1 MOL      0.099751
     81 N9          3.6790    2.7710    1.3660 n         1 MOL     -0.445661
     82 C25         2.4110    3.5560    1.2030 c3        1 MOL      0.194145
     83 C26         1.1650    2.6570    1.1350 c         1 MOL      0.479815
     84 O13         1.2210    1.5780    0.5390 o         1 MOL     -0.593701
     85 C27         2.6470    4.2880   -0.1470 c3        1 MOL      0.044128
     86 C28         3.7160    5.2820   -0.2070 ca        1 MOL     -0.136218
     87 C29         5.0350    4.9570   -0.6490 ca        1 MOL     -0.129747
     88 C30         3.4330    6.5370    0.3320 ca        1 MOL     -0.129747
     89 C31         6.0330    5.9700   -0.6220 ca        1 MOL     -0.257908
     90 C32         4.4440    7.5360    0.4320 ca        1 MOL     -0.257908
     91 C33         5.7560    7.2300   -0.0210 ca        1 MOL      0.393642
     92 O14         6.6900    8.2060    0.0060 oh        1 MOL     -0.488168
     93 H37         3.7280    1.8620    0.9210 hn        1 MOL      0.292913
     94 H38         2.3240    4.3020    1.9940 h1        1 MOL      0.057017
     95 H39         1.6980    4.8260   -0.2310 hc        1 MOL     -0.004286
     96 H40         2.7210    3.5310   -0.9190 hc        1 MOL     -0.004286
     97 H41         5.3320    3.9670   -0.9790 ha        1 MOL      0.135624
     98 H42         2.4590    6.7430    0.7600 ha        1 MOL      0.135624
     99 H43         7.0370    5.7620   -0.9640 ha        1 MOL      0.140643
    100 H44         4.1200    8.5380    0.6840 ha        1 MOL      0.140643
    101 H45         6.3140    9.0600    0.2210 ho        1 MOL      0.354312
    102 N10        -0.0220    3.1470    1.5980 n         1 MOL     -0.580205
    103 C34        -1.3380    2.5540    1.5180 c3        1 MOL     -0.009655
    104 C35        -2.4340    3.4470    0.9110 c         1 MOL      0.657604
    105 O15        -2.6050    4.5860    1.3430 o         1 MOL     -0.569871
    106 C36        -1.8480    1.9160    2.8640 c3        1 MOL      0.091830
    107 C37        -0.8060    0.8430    3.2610 c3        1 MOL      0.025514
    108 C38        -3.2900    1.3390    2.9180 c3        1 MOL     -0.373405
    109 C39        -0.8550    0.4200    4.7470 c3        1 MOL     -0.316994
    110 H46        -0.0170    4.0430    2.0640 hn        1 MOL      0.322810
    111 H47        -1.2670    1.7290    0.7990 h1        1 MOL      0.028128
    112 H48        -1.7950    2.7130    3.6060 hc        1 MOL      0.038598
    113 H49         0.2600    1.0170    3.1260 hc        1 MOL      0.088564
    114 H50        -0.9130   -0.0790    2.6910 hc        1 MOL      0.088564
    115 H51        -3.9730    2.0170    2.4080 hc        1 MOL      0.107148
    116 H52        -3.3350    0.3490    2.4480 hc        1 MOL      0.107148
    117 H53        -3.5290    1.2630    3.9780 hc        1 MOL      0.107148
    118 H54        -1.8940    0.1520    4.9460 hc        1 MOL      0.069109
    119 H55        -0.0930   -0.3420    4.9190 hc        1 MOL      0.069109
    120 H56        -0.7110    1.3360    5.3230 hc        1 MOL      0.069109
    121 N11        -3.1460    2.8750   -0.0490 n         1 MOL     -0.473119
    122 C40        -4.2340    3.5790   -0.8060 c3        1 MOL      0.106632
    123 C41        -5.6140    3.3830   -0.2350 c         1 MOL      0.441978
    124 O16        -5.9440    2.5980    0.5780 o         1 MOL     -0.371179
    125 C42        -4.1270    3.1640   -2.2610 c3        1 MOL     -0.294753
    126 O17        -4.8980    2.0130   -2.5780 oh        1 MOL     -0.414153
    127 H57        -2.9710    1.9020   -0.2580 hn        1 MOL      0.349506
    128 H58        -4.0690    4.6590   -0.8440 h1        1 MOL      0.077092
    129 H59        -3.1020    2.9020   -2.5410 h1        1 MOL      0.159174
    130 H60        -4.5400    3.9940   -2.8350 h1        1 MOL      0.159174
    131 H61        -4.5450    1.5940   -3.3710 ho        1 MOL      0.394294
    132 N12        -6.6090    4.0990   -0.7710 n         1 MOL     -0.474396
    133 C43        -8.1020    3.9840   -0.5000 c3        1 MOL      0.131708
    134 C44        -8.7140    2.6940   -1.0180 c         1 MOL      0.450190
    135 O18        -9.7270    2.2920   -0.4510 o         1 MOL     -0.522838
    136 C45        -8.7980    5.2640   -1.0020 c3        1 MOL     -0.303784
    137 H62        -6.3840    4.8550   -1.4110 hn        1 MOL      0.294211
    138 H63        -8.2550    3.8560    0.5700 h1        1 MOL      0.098609
    139 H64        -8.3410    6.1420   -0.5440 hc        1 MOL      0.096593
    140 H65        -8.6900    5.3060   -2.0860 hc        1 MOL      0.096593
    141 H66        -9.8420    5.1630   -0.7190 hc        1 MOL      0.096593
    142 N13        -7.9840    1.9470   -1.8290 n         1 MOL     -0.227188
    143 C46        -8.2150    0.5910   -2.2290 c3        1 MOL      0.097626
    144 C47        -7.5610   -0.4630   -1.2670 c         1 MOL      0.301863
    145 O19        -8.1540   -1.4590   -0.8520 o         1 MOL     -0.511729
    146 C48        -7.8270    0.4340   -3.7090 c3        1 MOL     -0.158118
    147 H67        -7.1240    2.2740   -2.2620 hn        1 MOL      0.132384
    148 H68        -9.3030    0.6210   -2.1830 h1        1 MOL      0.072032
    149 H69        -6.7400    0.3140   -3.7450 hc        1 MOL      0.046588
    150 H70        -8.2720   -0.4880   -4.0790 hc        1 MOL      0.046588
    151 H71        -8.2410    1.2410   -4.3130 hc        1 MOL      0.046588
    152 N14        -6.2890   -0.1800   -0.9450 n         1 MOL      0.104154
    153 C49        -5.4610   -1.0030   -0.0990 c3        1 MOL     -0.276599
    154 C50        -5.9340   -0.9120    1.4060 c         1 MOL      0.519116
    155 O20        -5.8580   -1.8760    2.1160 o         1 MOL     -0.539654
    156 C51        -3.9890   -0.5050   -0.3350 c3        1 MOL     -0.113958
    157 C52        -2.9350   -1.5140    0.0940 c3        1 MOL     -0.013252
    158 C53        -1.5810   -1.1520   -0.5050 c         1 MOL      0.651657
    159 O21        -0.6220   -1.8940   -0.1710 o         1 MOL     -0.717397
    160 O22        -1.3790   -0.0470   -1.0050 o         1 MOL     -0.717397
    161 H72        -5.9630    0.6240   -1.4590 hn        1 MOL      0.001221
    162 H73        -5.5190   -2.0610   -0.3450 h1        1 MOL      0.084716
    163 H74        -3.8530    0.4810    0.0930 hc        1 MOL      0.036723
    164 H75        -3.8840   -0.3420   -1.4090 hc        1 MOL      0.036723
    165 H76        -3.2360   -2.4760   -0.3270 hc        1 MOL      0.056671
    166 H77        -3.0200   -1.5230    1.1860 hc        1 MOL      0.056671
    167 N15        -6.5590    0.1760    1.8760 n         1 MOL     -0.155144
    168 C54        -6.9850    0.3650    3.2820 c3        1 MOL     -0.187926
    169 H78        -7.8480   -0.2670    3.4870 h1        1 MOL      0.090367
    170 H79        -6.1670    0.0920    3.9490 h1        1 MOL      0.090367
    171 H80        -7.2530    1.4100    3.4430 h1        1 MOL      0.090367
    172 H81        -6.6300    0.9420    1.2180 hn        1 MOL      0.146651
    173 Ca1         1.3010   -0.4360   -1.3400 Ca        1 MOL      1.842753
    174 O23         0.2640   -2.1300   -3.1460 oh        1 MOL     -0.850353
    175 H82         0.1780   -1.8030   -4.0380 ho        1 MOL      0.401897
    176 H83         0.1570   -3.0820   -3.2260 ho        1 MOL      0.401897
    177 O24         1.9900    0.1180   -3.9430 oh        1 MOL     -0.850353
    178 H84         2.4720   -0.6910   -4.0900 ho        1 MOL      0.401897
    179 H85         2.3290    0.7220   -4.5970 ho        1 MOL      0.401897
    180 O25         0.6720    2.2450   -2.0690 oh        1 MOL     -0.850353
    181 H86        -0.0880    2.6520   -1.6500 ho        1 MOL      0.401897
    182 H87         1.2100    2.9830   -2.3530 ho        1 MOL      0.401897
@<TRIPOS>BOND
     1    1    2 1   
     2    1    4 1   
     3    1    5 1   
     4    1    6 1   
     5    2    3 2   
     6    2    7 1   
     7    7    8 1   
     8    7   15 1   
     9    8    9 1   
    10    8   11 1   
    11    8   16 1   
    12    9   10 2   
    13    9   19 1   
    14   11   12 1   
    15   11   17 1   
    16   11   18 1   
    17   12   13 1   
    18   12   14 1   
    19   19   20 1   
    20   19   28 1   
    21   20   21 1   
    22   20   23 1   
    23   20   29 1   
    24   21   22 2   
    25   21   41 1   
    26   23   24 1   
    27   23   30 1   
    28   23   31 1   
    29   24   25 1   
    30   24   32 1   
    31   24   33 1   
    32   25   26 1   
    33   25   34 1   
    34   25   35 1   
    35   26   27 1   
    36   26   36 1   
    37   26   37 1   
    38   27   38 1   
    39   27   39 1   
    40   27   40 1   
    41   41   42 1   
    42   41   49 1   
    43   42   43 1   
    44   42   45 1   
    45   42   50 1   
    46   43   44 2   
    47   43   53 1   
    48   45   46 1   
    49   45   51 1   
    50   45   52 1   
    51   46   47 1   
    52   46   48 1   
    53   53   54 1   
    54   53   57 1   
    55   54   55 1   
    56   54   58 1   
    57   54   59 1   
    58   55   56 2   
    59   55   60 1   
    60   60   61 1   
    61   60   68 1   
    62   61   62 1   
    63   61   64 1   
    64   61   69 1   
    65   62   63 2   
    66   62   74 1   
    67   64   65 1   
    68   64   70 1   
    69   64   71 1   
    70   65   66 1   
    71   65   67 2   
    72   66   72 1   
    73   66   73 1   
    74   74   75 1   
    75   74   78 1   
    76   75   76 1   
    77   75   79 1   
    78   75   80 1   
    79   76   77 2   
    80   76   81 1   
    81   81   82 1   
    82   81   93 1   
    83   82   83 1   
    84   82   85 1   
    85   82   94 1   
    86   83   84 2   
    87   83  102 1   
    88   85   86 1   
    89   85   95 1   
    90   85   96 1   
    91   86   87 ar  
    92   86   88 ar  
    93   87   89 ar  
    94   87   97 1   
    95   88   90 ar  
    96   88   98 1   
    97   89   91 ar  
    98   89   99 1   
    99   90   91 ar  
   100   90  100 1   
   101   91   92 1   
   102   92  101 1   
   103  102  103 1   
   104  102  110 1   
   105  103  104 1   
   106  103  106 1   
   107  103  111 1   
   108  104  105 2   
   109  104  121 1   
   110  106  107 1   
   111  106  108 1   
   112  106  112 1   
   113  107  109 1   
   114  107  113 1   
   115  107  114 1   
   116  108  115 1   
   117  108  116 1   
   118  108  117 1   
   119  109  118 1   
   120  109  119 1   
   121  109  120 1   
   122  121  122 1   
   123  121  127 1   
   124  122  123 1   
   125  122  125 1   
   126  122  128 1   
   127  123  124 2   
   128  123  132 1   
   129  125  126 1   
   130  125  129 1   
   131  125  130 1   
   132  126  131 1   
   133  132  133 1   
   134  132  137 1   
   135  133  134 1   
   136  133  136 1   
   137  133  138 1   
   138  134  135 2   
   139  134  142 1   
   140  136  139 1   
   141  136  140 1   
   142  136  141 1   
   143  142  143 1   
   144  142  147 1   
   145  143  144 1   
   146  143  146 1   
   147  143  148 1   
   148  144  145 2   
   149  144  152 1   
   150  146  149 1   
   151  146  150 1   
   152  146  151 1   
   153  152  153 1   
   154  152  161 1   
   155  153  154 1   
   156  153  156 1   
   157  153  162 1   
   158  154  155 2   
   159  154  167 1   
   160  156  157 1   
   161  156  163 1   
   162  156  164 1   
   163  157  158 1   
   164  157  165 1   
   165  157  166 1   
   166  158  159 1   
   167  158  160 1   
   168  167  168 1   
   169  167  172 1   
   170  168  169 1   
   171  168  170 1   
   172  168  171 1   
   173  174  175 1   
   174  174  176 1   
   175  177  178 1   
   176  177  179 1   
   177  180  181 1   
   178  180  182 1   
@<TRIPOS>SUBSTRUCTURE
     1 MOL         1 TEMP              0 ****  ****    0 ROOT
