@<TRIPOS>MOLECULE
MOL
  189   185     1     0     0
SMALL
resp


@<TRIPOS>ATOM
      1 C1         -0.8290    4.2910    5.7020 c3        1 MOL     -0.360482
      2 C2         -1.5180    3.5210    4.5040 c         1 MOL      0.650896
      3 O1         -1.7010    2.3110    4.5630 o         1 MOL     -0.565272
      4 H1         -1.4070    5.1850    5.9390 hc        1 MOL      0.097808
      5 H2         -0.7890    3.6420    6.5770 hc        1 MOL      0.097808
      6 H3          0.1820    4.5790    5.4160 hc        1 MOL      0.097808
      7 N1         -1.9520    4.2390    3.4530 n         1 MOL     -0.427009
      8 C3         -2.5340    3.7610    2.2040 c3        1 MOL     -0.115756
      9 C4         -2.5170    4.9160    1.2130 c         1 MOL      0.647864
     10 O2         -2.6880    6.1320    1.4990 o         1 MOL     -0.584843
     11 C5         -4.0060    3.3700    2.4370 c3        1 MOL     -0.323431
     12 C6         -4.6440    2.4480    1.3850 c         1 MOL      0.768024
     13 O3         -5.7690    2.0030    1.7090 o         1 MOL     -0.663664
     14 O4         -4.0280    2.2180    0.2980 o         1 MOL     -0.663664
     15 H4         -1.8600    5.2370    3.5110 hn        1 MOL      0.261346
     16 H5         -2.0440    2.8600    1.8080 h1        1 MOL      0.176973
     17 H6         -4.4570    4.3550    2.5380 hc        1 MOL      0.094972
     18 H7         -4.1380    2.8170    3.3690 hc        1 MOL      0.094972
     19 N2         -2.3030    4.5900   -0.0630 n         1 MOL     -0.385658
     20 C7         -2.3520    5.5390   -1.1960 c3        1 MOL     -0.234433
     21 C8         -3.0500    4.9000   -2.4460 c         1 MOL      0.541548
     22 O5         -3.0540    5.5770   -3.5390 o         1 MOL     -0.582672
     23 C9         -0.9040    6.0440   -1.5410 c3        1 MOL      0.384527
     24 C10         0.0040    4.8940   -2.0220 c3        1 MOL     -0.035803
     25 C11        -0.2990    6.9460   -0.4570 c3        1 MOL     -0.208676
     26 C12         1.4120    5.3910   -2.3630 c3        1 MOL     -0.150188
     27 H8         -2.2870    3.5930   -0.2320 hn        1 MOL      0.235671
     28 H9         -2.9460    6.4220   -0.9410 h1        1 MOL      0.132164
     29 H10        -1.0160    6.7380   -2.3820 hc        1 MOL     -0.081166
     30 H11        -0.4010    4.3550   -2.8800 hc        1 MOL      0.064544
     31 H12         0.2140    4.2540   -1.1560 hc        1 MOL      0.064544
     32 H13        -0.2980    6.3790    0.4740 hc        1 MOL      0.030315
     33 H14         0.6640    7.3480   -0.7660 hc        1 MOL      0.030315
     34 H15        -0.9220    7.8410   -0.3810 hc        1 MOL      0.030315
     35 H16         1.3190    6.1700   -3.1260 hc        1 MOL      0.020491
     36 H17         1.8910    5.8270   -1.4870 hc        1 MOL      0.020491
     37 H18         2.0170    4.5930   -2.8040 hc        1 MOL      0.020491
     38 N3         -3.7350    3.7510   -2.2980 n         1 MOL     -0.491982
     39 C13        -4.4510    3.1280   -3.4480 c3        1 MOL      0.076064
     40 C14        -5.7210    2.3470   -3.0610 c         1 MOL      0.406295
     41 O6         -6.5460    2.0380   -3.9410 o         1 MOL     -0.556914
     42 C15        -3.3730    2.2260   -4.1030 c3        1 MOL     -0.299012
     43 C16        -2.7620    1.1570   -3.1970 c         1 MOL      0.788879
     44 O7         -3.3480    0.8190   -2.1640 o         1 MOL     -0.725468
     45 O8         -1.6660    0.6110   -3.4790 o         1 MOL     -0.725468
     46 H19        -3.6700    3.2710   -1.4090 hn        1 MOL      0.372487
     47 H20        -4.8080    3.8430   -4.1950 h1        1 MOL      0.097923
     48 H21        -2.5480    2.8450   -4.4540 hc        1 MOL      0.075305
     49 H22        -3.8940    1.6700   -4.8880 hc        1 MOL      0.075305
     50 N4         -5.9310    2.0170   -1.8040 n         1 MOL     -0.045276
     51 C17        -7.2310    1.6060   -1.3050 c3        1 MOL     -0.374197
     52 C18        -7.5450    0.0970   -1.3040 c         1 MOL      0.698148
     53 O9         -8.7280   -0.2680   -1.3440 o         1 MOL     -0.626362
     54 H23        -5.1450    1.9620   -1.1630 hn        1 MOL      0.008532
     55 H24        -8.0470    2.0990   -1.8390 h1        1 MOL      0.138585
     56 H25        -7.2050    1.7920   -0.2300 h1        1 MOL      0.138585
     57 N5         -6.5720   -0.7600   -1.3280 n         1 MOL     -0.656421
     58 C19        -6.6710   -2.0420   -2.0410 c3        1 MOL      0.350245
     59 C20        -6.8670   -3.2080   -1.1600 c         1 MOL      0.324778
     60 O10        -7.4800   -4.2030   -1.5390 o         1 MOL     -0.554809
     61 C21        -5.4610   -2.2520   -2.9890 c3        1 MOL     -0.437872
     62 C22        -4.1460   -2.1400   -2.2880 c         1 MOL      0.836234
     63 O11        -4.0480   -1.8420   -1.0800 o         1 MOL     -0.713889
     64 O12        -3.1040   -2.5680   -2.8180 o         1 MOL     -0.713889
     65 H26        -5.6590   -0.3420   -1.2640 hn        1 MOL      0.448110
     66 H27        -7.5270   -2.1320   -2.7080 h1        1 MOL      0.048148
     67 H28        -5.4750   -1.5820   -3.8510 hc        1 MOL      0.119475
     68 H29        -5.4750   -3.2530   -3.4320 hc        1 MOL      0.119475
     69 N6         -6.3830   -3.1910    0.0990 n         1 MOL     -0.045793
     70 C23        -6.6720   -4.0920    1.1800 c3        1 MOL     -0.039542
     71 C24        -5.3810   -4.7110    1.7910 c         1 MOL      0.512077
     72 O13        -5.4830   -5.6410    2.6540 o         1 MOL     -0.598430
     73 H30        -5.8090   -2.4050    0.3620 hn        1 MOL      0.092667
     74 H31        -7.1290   -4.9910    0.7660 h1        1 MOL      0.052519
     75 H32        -7.3600   -3.7180    1.9330 h1        1 MOL      0.052519
     76 N7         -4.2230   -4.1630    1.4710 n         1 MOL     -0.352081
     77 C25        -2.8560   -4.5650    1.8500 c3        1 MOL      0.189507
     78 C26        -1.9390   -3.3390    2.1410 c         1 MOL      0.409534
     79 O14        -2.0960   -2.2700    1.4830 o         1 MOL     -0.478107
     80 C27        -2.3500   -5.4770    0.7350 c3        1 MOL     -0.294787
     81 C28        -2.4050   -4.7710   -0.6790 c3        1 MOL      0.221335
     82 C29        -2.2390   -5.7320   -1.7980 c         1 MOL      0.555551
     83 N8         -2.1740   -5.2080   -2.9840 n         1 MOL     -0.769623
     84 O15        -2.2920   -6.9650   -1.6110 o         1 MOL     -0.615509
     85 H33        -4.2700   -3.3300    0.9100 hn        1 MOL      0.156171
     86 H34        -2.9090   -5.1410    2.7660 h1        1 MOL      0.031709
     87 H35        -2.9580   -6.3870    0.7040 hc        1 MOL      0.078766
     88 H36        -1.3000   -5.7360    0.8760 hc        1 MOL      0.078766
     89 H37        -1.6350   -4.0040   -0.6890 hc        1 MOL     -0.016346
     90 H38        -3.3680   -4.2740   -0.8140 hc        1 MOL     -0.016346
     91 H39        -2.2260   -4.1980   -3.0230 hn        1 MOL      0.354692
     92 H40        -2.2420   -5.8120   -3.7980 hn        1 MOL      0.354692
     93 N9         -0.9310   -3.4540    3.0530 n         1 MOL     -0.561671
     94 C30         0.1960   -2.4820    3.1130 c3        1 MOL      0.008916
     95 C31         1.3320   -2.8790    2.1650 c         1 MOL      0.831904
     96 O16         1.9590   -3.9270    2.3540 o         1 MOL     -0.643830
     97 C32         0.5760   -2.1330    4.5710 c3        1 MOL      0.281516
     98 C33         1.4740   -3.1210    5.2840 c3        1 MOL     -0.238654
     99 C34         1.3060   -0.7870    4.5660 c3        1 MOL     -0.238654
    100 H41        -1.0370   -4.2180    3.7000 hn        1 MOL      0.323416
    101 H42        -0.1580   -1.5400    2.6860 h1        1 MOL      0.039116
    102 H43        -0.3090   -2.0090    5.1910 hc        1 MOL     -0.036962
    103 H44         2.4190   -3.2220    4.7500 hc        1 MOL      0.037453
    104 H45         1.6880   -2.8880    6.3280 hc        1 MOL      0.037453
    105 H46         1.1360   -4.1450    5.0900 hc        1 MOL      0.037453
    106 H47         2.1750   -0.9090    3.9170 hc        1 MOL      0.037453
    107 H48         0.6210   -0.0340    4.1830 hc        1 MOL      0.037453
    108 H49         1.5530   -0.4190    5.5610 hc        1 MOL      0.037453
    109 N10         1.6670   -2.1760    1.0770 n         1 MOL     -0.587185
    110 C35         2.7950   -2.4460    0.0860 c3        1 MOL      0.088715
    111 C36         4.0580   -2.0130    0.7600 c         1 MOL      0.162706
    112 O17         3.9960   -1.2310    1.7560 o         1 MOL     -0.329269
    113 C37         2.4300   -1.7330   -1.1590 c3        1 MOL     -0.254432
    114 C38         3.5870   -1.6840   -2.1400 c         1 MOL      0.659266
    115 N11         3.8330   -2.6680   -2.9860 n         1 MOL     -0.762306
    116 O18         4.1870   -0.6560   -2.2890 o         1 MOL     -0.480534
    117 H50         1.2410   -1.2590    1.0210 hn        1 MOL      0.446315
    118 H51         2.8240   -3.5270   -0.0670 h1        1 MOL      0.080948
    119 H52         2.1850   -0.7240   -0.8250 hc        1 MOL      0.109533
    120 H53         1.5850   -2.1320   -1.7080 hc        1 MOL      0.109533
    121 H54         3.3560   -3.5590   -2.9370 hn        1 MOL      0.343410
    122 H55         4.4300   -2.4840   -3.7770 hn        1 MOL      0.343410
    123 N12         5.2620   -2.3400    0.2060 n         1 MOL      0.012757
    124 C39         6.4700   -1.9780    0.9610 c3        1 MOL     -0.063842
    125 C40         6.7290   -0.4530    0.9890 c         1 MOL      0.420314
    126 O19         7.1490    0.0880    1.9670 o         1 MOL     -0.513986
    127 C41         7.6210   -2.8520    0.4030 c3        1 MOL      0.020395
    128 C42         7.9260   -2.5510   -1.0200 ca        1 MOL      0.032296
    129 C43         9.0310   -1.7440   -1.3720 ca        1 MOL     -0.239490
    130 C44         7.3130   -3.2900   -2.0210 ca        1 MOL     -0.239490
    131 C45         9.2410   -1.3980   -2.7220 ca        1 MOL     -0.228145
    132 C46         7.5950   -3.0780   -3.3550 ca        1 MOL     -0.228145
    133 C47         8.4760   -2.0690   -3.7160 ca        1 MOL      0.334481
    134 O20         8.7370   -1.8270   -5.0110 oh        1 MOL     -0.538104
    135 H56         5.4090   -2.8360   -0.6630 hn        1 MOL     -0.016145
    136 H57         6.3250   -2.2910    2.0000 h1        1 MOL      0.067205
    137 H58         7.3770   -3.9040    0.5430 hc        1 MOL      0.017770
    138 H59         8.4930   -2.7330    1.0460 hc        1 MOL      0.017770
    139 H60         9.7610   -1.4270   -0.6460 ha        1 MOL      0.174946
    140 H61         6.5920   -4.0280   -1.6980 ha        1 MOL      0.174946
    141 H62         9.9870   -0.6600   -2.9720 ha        1 MOL      0.148672
    142 H63         7.1570   -3.6910   -4.1270 ha        1 MOL      0.148672
    143 H64         9.3980   -1.1340   -4.9950 ho        1 MOL      0.405360
    144 N13         6.3300    0.2810   -0.0850 n         1 MOL     -0.216645
    145 C48         6.3960    1.7070   -0.1360 c3        1 MOL     -0.017324
    146 C49         5.5530    2.3060    0.9590 c         1 MOL      0.264545
    147 O21         6.0650    3.2160    1.6220 o         1 MOL     -0.503686
    148 C50         6.0030    2.1380   -1.5310 c3        1 MOL      0.075703
    149 C51         6.6070    1.4020   -2.6790 c3        1 MOL     -0.154744
    150 C52         8.0630    1.8030   -2.9820 c         1 MOL      0.789267
    151 O22         8.4600    2.0200   -4.1720 o         1 MOL     -0.759185
    152 O23         8.8070    2.0470   -2.0020 o         1 MOL     -0.759185
    153 H65         6.0530   -0.2120   -0.9280 hn        1 MOL      0.325353
    154 H66         7.3880    2.0770    0.1020 h1        1 MOL      0.115413
    155 H67         6.2230    3.1860   -1.7340 hc        1 MOL      0.003114
    156 H68         4.9410    1.8900   -1.5450 hc        1 MOL      0.003114
    157 H69         6.0360    1.6780   -3.5700 hc        1 MOL     -0.011383
    158 H70         6.4570    0.3250   -2.7140 hc        1 MOL     -0.011383
    159 N14         4.3120    1.8820    1.2620 n         1 MOL     -0.090176
    160 C53         3.3490    2.3470    2.2910 c3        1 MOL      0.014060
    161 C54         3.6600    1.9060    3.7320 c         1 MOL      0.305722
    162 O24         3.4900    2.6870    4.7070 o         1 MOL     -0.549595
    163 C55         1.9900    1.7850    1.9810 c3        1 MOL     -0.016122
    164 C56         1.6100    1.9310    0.4820 c3        1 MOL     -0.466019
    165 C57         0.2920    1.2680    0.2760 c         1 MOL      0.987160
    166 O25        -0.6830    1.8640   -0.2020 o         1 MOL     -0.846258
    167 O26         0.1030    0.1380    0.6700 o         1 MOL     -0.846258
    168 H71         3.9300    1.2550    0.5610 hn        1 MOL      0.081434
    169 H72         3.2210    3.4270    2.3650 h1        1 MOL      0.073781
    170 H73         1.2330    2.2670    2.5960 hc        1 MOL      0.076150
    171 H74         1.9430    0.7370    2.2700 hc        1 MOL      0.076150
    172 H75         2.3780    1.5220   -0.1810 hc        1 MOL      0.104331
    173 H76         1.5300    2.9810    0.2210 hc        1 MOL      0.104331
    174 N15         4.3010    0.7190    3.8590 n         1 MOL      0.099368
    175 C58         4.9300    0.3100    5.1130 c3        1 MOL     -0.154094
    176 H77         4.7600    1.0760    5.8710 h1        1 MOL      0.055034
    177 H78         4.4960   -0.6320    5.4470 h1        1 MOL      0.055034
    178 H79         6.0020    0.1840    4.9590 h1        1 MOL      0.055034
    179 H80         4.1600    0.0740    3.0870 hn        1 MOL      0.046389
    180 Ca1        -2.5260    0.0020    0.1390 Ca        1 MOL      1.763335
    181 O27        -2.3720    0.3250    2.9890 oh        1 MOL     -0.903404
    182 H81        -2.3870    0.9580    3.7000 ho        1 MOL      0.419026
    183 H82        -2.5070   -0.5200    3.4180 ho        1 MOL      0.419026
    184 O28        -1.0030   -1.6620   -1.4520 oh        1 MOL     -0.903404
    185 H83        -0.3810   -1.4180   -2.1340 ho        1 MOL      0.419026
    186 H84        -1.7610   -1.9910   -1.9330 ho        1 MOL      0.419026
    187 O29        -4.9040   -0.5570    1.3360 oh        1 MOL     -0.903404
    188 H85        -5.4580    0.2340    1.4090 ho        1 MOL      0.419026
    189 H86        -4.9680   -0.9670    2.1940 ho        1 MOL      0.419026
@<TRIPOS>BOND
     1    1    2 1   
     2    1    4 1   
     3    1    5 1   
     4    1    6 1   
     5    2    3 2   
     6    2    7 1   
     7    7    8 1   
     8    7   15 1   
     9    8    9 1   
    10    8   11 1   
    11    8   16 1   
    12    9   10 2   
    13    9   19 1   
    14   11   12 1   
    15   11   17 1   
    16   11   18 1   
    17   12   13 1   
    18   12   14 1   
    19   19   20 1   
    20   19   27 1   
    21   20   21 1   
    22   20   23 1   
    23   20   28 1   
    24   21   22 2   
    25   21   38 1   
    26   23   24 1   
    27   23   25 1   
    28   23   29 1   
    29   24   26 1   
    30   24   30 1   
    31   24   31 1   
    32   25   32 1   
    33   25   33 1   
    34   25   34 1   
    35   26   35 1   
    36   26   36 1   
    37   26   37 1   
    38   38   39 1   
    39   38   46 1   
    40   39   40 1   
    41   39   42 1   
    42   39   47 1   
    43   40   41 2   
    44   40   50 1   
    45   42   43 1   
    46   42   48 1   
    47   42   49 1   
    48   43   44 1   
    49   43   45 1   
    50   50   51 1   
    51   50   54 1   
    52   51   52 1   
    53   51   55 1   
    54   51   56 1   
    55   52   53 2   
    56   52   57 1   
    57   57   58 1   
    58   57   65 1   
    59   58   59 1   
    60   58   61 1   
    61   58   66 1   
    62   59   60 2   
    63   59   69 1   
    64   61   62 1   
    65   61   67 1   
    66   61   68 1   
    67   62   63 1   
    68   62   64 1   
    69   69   70 1   
    70   69   73 1   
    71   70   71 1   
    72   70   74 1   
    73   70   75 1   
    74   71   72 2   
    75   71   76 1   
    76   76   77 1   
    77   76   85 1   
    78   77   78 1   
    79   77   80 1   
    80   77   86 1   
    81   78   79 2   
    82   78   93 1   
    83   80   81 1   
    84   80   87 1   
    85   80   88 1   
    86   81   82 1   
    87   81   89 1   
    88   81   90 1   
    89   82   83 1   
    90   82   84 2   
    91   83   91 1   
    92   83   92 1   
    93   93   94 1   
    94   93  100 1   
    95   94   95 1   
    96   94   97 1   
    97   94  101 1   
    98   95   96 2   
    99   95  109 1   
   100   97   98 1   
   101   97   99 1   
   102   97  102 1   
   103   98  103 1   
   104   98  104 1   
   105   98  105 1   
   106   99  106 1   
   107   99  107 1   
   108   99  108 1   
   109  109  110 1   
   110  109  117 1   
   111  110  111 1   
   112  110  113 1   
   113  110  118 1   
   114  111  112 2   
   115  111  123 1   
   116  113  114 1   
   117  113  119 1   
   118  113  120 1   
   119  114  115 1   
   120  114  116 2   
   121  115  121 1   
   122  115  122 1   
   123  123  124 1   
   124  123  135 1   
   125  124  125 1   
   126  124  127 1   
   127  124  136 1   
   128  125  126 2   
   129  125  144 1   
   130  127  128 1   
   131  127  137 1   
   132  127  138 1   
   133  128  129 ar  
   134  128  130 ar  
   135  129  131 ar  
   136  129  139 1   
   137  130  132 ar  
   138  130  140 1   
   139  131  133 ar  
   140  131  141 1   
   141  132  133 ar  
   142  132  142 1   
   143  133  134 1   
   144  134  143 1   
   145  144  145 1   
   146  144  153 1   
   147  145  146 1   
   148  145  148 1   
   149  145  154 1   
   150  146  147 2   
   151  146  159 1   
   152  148  149 1   
   153  148  155 1   
   154  148  156 1   
   155  149  150 1   
   156  149  157 1   
   157  149  158 1   
   158  150  151 1   
   159  150  152 1   
   160  159  160 1   
   161  159  168 1   
   162  160  161 1   
   163  160  163 1   
   164  160  169 1   
   165  161  162 2   
   166  161  174 1   
   167  163  164 1   
   168  163  170 1   
   169  163  171 1   
   170  164  165 1   
   171  164  172 1   
   172  164  173 1   
   173  165  166 1   
   174  165  167 1   
   175  174  175 1   
   176  174  179 1   
   177  175  176 1   
   178  175  177 1   
   179  175  178 1   
   180  181  182 1   
   181  181  183 1   
   182  184  185 1   
   183  184  186 1   
   184  187  188 1   
   185  187  189 1   
@<TRIPOS>SUBSTRUCTURE
     1 MOL         1 TEMP              0 ****  ****    0 ROOT
