@<TRIPOS>MOLECULE
MOL
  172   171     1     0     0
SMALL
resp


@<TRIPOS>ATOM
      1 C1          0.7510    3.3930    5.6820 c3        1 MOL     -0.357057
      2 C2          0.0560    3.4800    4.3200 c         1 MOL      0.771580
      3 O1          0.7340    3.7020    3.3340 o         1 MOL     -0.577589
      4 H1          0.4760    4.2580    6.2850 hc        1 MOL      0.085680
      5 H2          0.4400    2.4810    6.1920 hc        1 MOL      0.085680
      6 H3          1.8310    3.3800    5.5390 hc        1 MOL      0.085680
      7 N1         -1.2620    3.2770    4.2070 n         1 MOL     -0.747813
      8 C3         -1.9130    3.1670    2.8790 c3        1 MOL      0.508605
      9 C4         -1.9090    4.4810    2.1010 c         1 MOL      0.284727
     10 O2         -2.1240    5.5900    2.6420 o         1 MOL     -0.534730
     11 C5         -3.3790    2.7520    3.0320 c3        1 MOL     -0.402058
     12 C6         -4.1480    2.6380    1.6690 c         1 MOL      0.724040
     13 O3         -5.1140    3.4400    1.4530 o         1 MOL     -0.651679
     14 O4         -3.7860    1.8210    0.8300 o         1 MOL     -0.651679
     15 H4         -1.8050    3.3460    5.0510 hn        1 MOL      0.332720
     16 H5         -1.4580    2.4080    2.2440 h1        1 MOL     -0.007096
     17 H6         -3.8670    3.5020    3.6530 hc        1 MOL      0.062241
     18 H7         -3.3560    1.7340    3.4080 hc        1 MOL      0.062241
     19 N2         -1.8220    4.3470    0.7490 n         1 MOL     -0.147457
     20 C7         -1.9010    5.4030   -0.2210 c3        1 MOL      0.538748
     21 C8         -2.6990    5.0420   -1.4880 c         1 MOL      0.237339
     22 O5         -2.5040    5.5920   -2.5520 o         1 MOL     -0.541007
     23 C9         -0.5330    5.8690   -0.4830 c3        1 MOL     -0.243953
     24 H8         -1.5290    3.4430    0.3920 hn        1 MOL      0.110098
     25 H9         -2.3850    6.2360    0.2850 h1        1 MOL     -0.066708
     26 H10        -0.2360    6.2370    0.4980 hc        1 MOL      0.032283
     27 H11         0.1340    5.0570   -0.7730 hc        1 MOL      0.032283
     28 H12        -0.5630    6.6430   -1.2490 hc        1 MOL      0.032283
     29 N3         -3.5610    4.0610   -1.5030 n         1 MOL     -0.001472
     30 C10        -4.4530    3.7020   -2.6700 c3        1 MOL      0.087108
     31 C11        -5.7320    2.9630   -2.3230 c         1 MOL      0.357574
     32 O6         -6.6490    2.8490   -3.1100 o         1 MOL     -0.560508
     33 C12        -3.7330    2.8030   -3.7470 c3        1 MOL     -0.335480
     34 C13        -3.0190    1.6380   -3.1670 c         1 MOL      0.788945
     35 O7         -3.4270    1.0640   -2.1370 o         1 MOL     -0.694246
     36 O8         -1.9900    1.2530   -3.7460 o         1 MOL     -0.694246
     37 H13        -3.7820    3.7030   -0.5860 hn        1 MOL     -0.101402
     38 H14        -4.7760    4.6520   -3.0980 h1        1 MOL      0.051650
     39 H15        -2.9560    3.4340   -4.1780 hc        1 MOL      0.088828
     40 H16        -4.4410    2.3220   -4.4310 hc        1 MOL      0.088828
     41 N4         -5.8170    2.4150   -1.1040 n         1 MOL      0.007565
     42 C14        -7.0590    1.8340   -0.5620 c3        1 MOL     -0.379000
     43 C15        -7.2580    0.3700   -0.9520 c         1 MOL      0.583435
     44 O9         -8.3210   -0.2140   -0.7620 o         1 MOL     -0.607440
     45 H17        -5.0570    2.4920   -0.4400 hn        1 MOL      0.123316
     46 H18        -7.8230    2.4970   -0.9590 h1        1 MOL      0.143302
     47 H19        -6.9670    1.9170    0.5140 h1        1 MOL      0.143302
     48 N5         -6.2330   -0.1680   -1.6660 n         1 MOL     -0.214506
     49 C16        -6.3460   -1.5220   -2.2360 c3        1 MOL     -0.000993
     50 C17        -6.3580   -2.7100   -1.2190 c         1 MOL      0.482178
     51 O10        -6.2280   -3.8880   -1.5880 o         1 MOL     -0.497683
     52 C18        -5.1860   -1.7240   -3.2200 c3        1 MOL     -0.197545
     53 C19        -3.7660   -2.0730   -2.6390 c         1 MOL      0.645240
     54 N6         -2.8630   -2.3430   -3.4980 n         1 MOL     -0.584472
     55 O11        -3.5490   -2.1340   -1.4460 o         1 MOL     -0.660141
     56 H20        -5.4080    0.3780   -1.8600 hn        1 MOL      0.163630
     57 H21        -7.3520   -1.5860   -2.6410 h1        1 MOL      0.093336
     58 H22        -4.9660   -0.7930   -3.7370 hc        1 MOL      0.056130
     59 H23        -5.4110   -2.4940   -3.9450 hc        1 MOL      0.056130
     60 H24        -3.0500   -2.2450   -4.4910 hn        1 MOL      0.322078
     61 H25        -1.9040   -2.4220   -3.1920 hn        1 MOL      0.322078
     62 N7         -6.5010   -2.3880    0.0960 n         1 MOL     -0.380694
     63 C20        -6.6080   -3.3030    1.2210 c3        1 MOL     -0.104144
     64 C21        -5.3650   -4.0780    1.6560 c         1 MOL      0.409864
     65 O12        -5.5460   -5.1660    2.2210 o         1 MOL     -0.550985
     66 H26        -6.5810   -1.4200    0.3680 hn        1 MOL      0.288922
     67 H27        -7.4160   -4.0050    1.0680 h1        1 MOL      0.091240
     68 H28        -6.9030   -2.8030    2.1440 h1        1 MOL      0.091240
     69 N8         -4.1790   -3.6950    1.1600 n         1 MOL      0.030690
     70 C22        -2.9110   -4.3460    1.4090 c3        1 MOL     -0.678969
     71 C23        -1.6960   -3.3560    1.4030 c         1 MOL      0.606052
     72 O13        -1.5710   -2.4740    0.5550 o         1 MOL     -0.493253
     73 C24        -2.6720   -5.4350    0.3360 c3        1 MOL      0.573111
     74 C25        -3.5540   -6.6600    0.4660 c3        1 MOL     -0.368955
     75 O14        -2.8800   -4.9860   -1.0010 oh        1 MOL     -0.618542
     76 H29        -4.1320   -2.8780    0.5700 hn        1 MOL      0.263583
     77 H30        -2.8910   -4.8020    2.3950 h1        1 MOL      0.195684
     78 H31        -1.6930   -5.9190    0.2900 h1        1 MOL     -0.019822
     79 H32        -2.9370   -4.0300   -1.0410 ho        1 MOL      0.361910
     80 H33        -3.5190   -6.9350    1.5210 hc        1 MOL      0.090697
     81 H34        -4.5510   -6.4090    0.1100 hc        1 MOL      0.090697
     82 H35        -3.1400   -7.5440   -0.0150 hc        1 MOL      0.090697
     83 N9         -0.6930   -3.6360    2.1850 n         1 MOL     -0.363013
     84 C26         0.6090   -2.8680    2.0700 c3        1 MOL     -0.288361
     85 C27         1.4290   -3.1160    0.8030 c         1 MOL      0.655177
     86 O15         1.9670   -4.1600    0.5010 o         1 MOL     -0.596531
     87 C28         1.4260   -3.1390    3.3290 c3        1 MOL      0.121107
     88 C29         0.6680   -2.5040    4.5150 c3        1 MOL      0.149047
     89 C30         2.9080   -2.6280    3.2850 c3        1 MOL     -0.349603
     90 C31         1.2100   -2.9590    5.8980 c3        1 MOL     -0.088189
     91 H36        -0.7380   -4.4760    2.7360 hn        1 MOL      0.289934
     92 H37         0.2340   -1.8540    1.9930 h1        1 MOL      0.164378
     93 H38         1.4550   -4.1870    3.6370 hc        1 MOL      0.024378
     94 H39        -0.3230   -2.9320    4.4360 hc        1 MOL     -0.051388
     95 H40         0.6040   -1.4230    4.4490 hc        1 MOL     -0.051388
     96 H41         2.8440   -1.5460    3.1600 hc        1 MOL      0.091722
     97 H42         3.4640   -2.6960    4.2200 hc        1 MOL      0.091722
     98 H43         3.4700   -3.0840    2.4610 hc        1 MOL      0.091722
     99 H44         2.2460   -2.7020    6.0630 hc        1 MOL      0.008353
    100 H45         0.6810   -2.4880    6.7270 hc        1 MOL      0.008353
    101 H46         1.1190   -4.0440    5.9580 hc        1 MOL      0.008353
    102 N10         1.6060   -2.0780    0.0140 n         1 MOL     -0.160401
    103 C32         2.4810   -2.0800   -1.1470 c3        1 MOL     -0.034714
    104 C33         3.9760   -1.7260   -0.8510 c         1 MOL      0.533165
    105 O16         4.3510   -1.2770    0.2450 o         1 MOL     -0.392152
    106 C34         1.8210   -1.1900   -2.2760 c3        1 MOL     -0.274455
    107 C35         0.3660   -1.4900   -2.6510 c         1 MOL      0.769832
    108 O17        -0.5530   -0.9950   -1.9560 o         1 MOL     -0.682084
    109 O18         0.1520   -2.1210   -3.6960 o         1 MOL     -0.682084
    110 H47         1.2240   -1.1840    0.2800 hn        1 MOL     -0.052580
    111 H48         2.5700   -3.0920   -1.5220 h1        1 MOL      0.095024
    112 H49         2.5380   -1.1360   -3.1010 hc        1 MOL      0.082430
    113 H50         1.8520   -0.1640   -1.9210 hc        1 MOL      0.082430
    114 N11         4.9300   -1.8830   -1.7510 n         1 MOL     -0.707793
    115 C36         6.3540   -1.6210   -1.4210 c3        1 MOL      0.581955
    116 C37         6.6580   -0.2110   -0.9370 c         1 MOL      0.284225
    117 O19         7.3690   -0.1370    0.0690 o         1 MOL     -0.500466
    118 C38         7.2330   -2.2770   -2.4930 c3        1 MOL     -0.263017
    119 C39         8.6870   -1.7840   -2.5210 ca        1 MOL      0.101024
    120 C40         9.5370   -2.1940   -1.5260 ca        1 MOL     -0.179186
    121 C41         9.0740   -0.8280   -3.4670 ca        1 MOL     -0.179186
    122 C42        10.8010   -1.5730   -1.3590 ca        1 MOL     -0.124069
    123 C43        10.3720   -0.2980   -3.4120 ca        1 MOL     -0.124069
    124 C44        11.2170   -0.5550   -2.2800 ca        1 MOL     -0.088418
    125 H51         4.7360   -2.2200   -2.6790 hn        1 MOL      0.329179
    126 H52         6.5150   -2.1990   -0.5100 h1        1 MOL     -0.026872
    127 H53         6.7900   -2.0050   -3.4440 hc        1 MOL      0.066696
    128 H54         7.1820   -3.3490   -2.3330 hc        1 MOL      0.066696
    129 H55         9.2670   -2.9390   -0.7960 ha        1 MOL      0.132308
    130 H56         8.4450   -0.5000   -4.2820 ha        1 MOL      0.132308
    131 H57        11.4470   -1.9050   -0.5610 ha        1 MOL      0.114629
    132 H58        10.7930    0.3800   -4.1360 ha        1 MOL      0.114629
    133 H59        12.2310   -0.1760   -2.2240 ha        1 MOL      0.095018
    134 N12         6.1530    0.9100   -1.5280 n         1 MOL     -0.036126
    135 C45         6.3830    2.2600   -0.9290 c3        1 MOL      0.030014
    136 C46         5.6410    2.5270    0.3630 c         1 MOL      0.162995
    137 O20         6.0880    3.3990    1.1470 o         1 MOL     -0.486861
    138 C47         5.9530    3.2900   -2.0230 c3        1 MOL     -0.053676
    139 C48         5.8000    2.4950   -3.2800 c3        1 MOL     -0.070673
    140 C49         5.5770    1.0050   -2.8040 c3        1 MOL      0.021124
    141 H60         7.4480    2.3660   -0.7210 h1        1 MOL      0.078611
    142 H61         4.9480    3.6110   -1.7300 hc        1 MOL      0.051914
    143 H62         6.6760    4.0940   -2.1410 hc        1 MOL      0.051914
    144 H63         4.9540    2.8680   -3.8550 hc        1 MOL      0.038727
    145 H64         6.7560    2.6360   -3.7810 hc        1 MOL      0.038727
    146 H65         4.5320    0.7190   -2.6750 h1        1 MOL     -0.009234
    147 H66         6.0460    0.4030   -3.5790 h1        1 MOL     -0.009234
    148 N13         4.6140    1.7740    0.6410 n         1 MOL      0.023680
    149 C50         3.9800    1.6740    1.9900 c3        1 MOL     -0.239569
    150 C51         4.7580    0.9760    3.0830 c         1 MOL      0.477885
    151 O21         4.8090    1.3110    4.2830 o         1 MOL     -0.539730
    152 C52         2.5490    1.1900    1.8040 c3        1 MOL     -0.238706
    153 C53         1.7660    1.7850    0.6680 c3        1 MOL      0.213366
    154 C54         0.2920    1.3720    0.6670 c         1 MOL      0.507463
    155 O22        -0.1380    0.3490    1.2970 o         1 MOL     -0.718120
    156 O23        -0.5700    1.9370   -0.0570 o         1 MOL     -0.718120
    157 H67         4.3850    1.0360   -0.0020 hn        1 MOL      0.163123
    158 H68         3.8650    2.7060    2.3210 h1        1 MOL      0.145776
    159 H69         1.9780    1.2130    2.7310 hc        1 MOL      0.144498
    160 H70         2.5270    0.1090    1.6290 hc        1 MOL      0.144498
    161 H71         2.2350    1.5210   -0.2820 hc        1 MOL      0.004554
    162 H72         1.8230    2.8790    0.6420 hc        1 MOL      0.004554
    163 N14         5.5570   -0.0670    2.6480 n         1 MOL     -0.019200
    164 C55         6.5420   -0.7740    3.4290 c3        1 MOL     -0.168945
    165 H73         7.5290   -0.6210    2.9930 h1        1 MOL      0.060327
    166 H74         6.5350   -0.3970    4.4520 h1        1 MOL      0.060327
    167 H75         6.3080   -1.8390    3.4330 h1        1 MOL      0.060327
    168 H76         5.1920   -0.5420    1.8350 hn        1 MOL      0.072920
    169 Ca1        -2.2180   -0.0560   -0.2730 Ca        1 MOL      1.745862
    170 O24        -4.1480   -0.8220    1.5210 oh        1 MOL     -1.074614
    171 H77        -4.9990   -0.5100    1.8230 ho        1 MOL      0.475952
    172 H78        -3.5720   -0.7260    2.2850 ho        1 MOL      0.475952
@<TRIPOS>BOND
     1    1    2 1   
     2    1    4 1   
     3    1    5 1   
     4    1    6 1   
     5    2    3 2   
     6    2    7 1   
     7    7    8 1   
     8    7   15 1   
     9    8    9 1   
    10    8   11 1   
    11    8   16 1   
    12    9   10 2   
    13    9   19 1   
    14   11   12 1   
    15   11   17 1   
    16   11   18 1   
    17   12   13 1   
    18   12   14 1   
    19   19   20 1   
    20   19   24 1   
    21   20   21 1   
    22   20   23 1   
    23   20   25 1   
    24   21   22 2   
    25   21   29 1   
    26   23   26 1   
    27   23   27 1   
    28   23   28 1   
    29   29   30 1   
    30   29   37 1   
    31   30   31 1   
    32   30   33 1   
    33   30   38 1   
    34   31   32 2   
    35   31   41 1   
    36   33   34 1   
    37   33   39 1   
    38   33   40 1   
    39   34   35 1   
    40   34   36 1   
    41   41   42 1   
    42   41   45 1   
    43   42   43 1   
    44   42   46 1   
    45   42   47 1   
    46   43   44 2   
    47   43   48 1   
    48   48   49 1   
    49   48   56 1   
    50   49   50 1   
    51   49   52 1   
    52   49   57 1   
    53   50   51 2   
    54   50   62 1   
    55   52   53 1   
    56   52   58 1   
    57   52   59 1   
    58   53   54 1   
    59   53   55 2   
    60   54   60 1   
    61   54   61 1   
    62   62   63 1   
    63   62   66 1   
    64   63   64 1   
    65   63   67 1   
    66   63   68 1   
    67   64   65 2   
    68   64   69 1   
    69   69   70 1   
    70   69   76 1   
    71   70   71 1   
    72   70   73 1   
    73   70   77 1   
    74   71   72 2   
    75   71   83 1   
    76   73   74 1   
    77   73   75 1   
    78   73   78 1   
    79   74   80 1   
    80   74   81 1   
    81   74   82 1   
    82   75   79 1   
    83   83   84 1   
    84   83   91 1   
    85   84   85 1   
    86   84   87 1   
    87   84   92 1   
    88   85   86 2   
    89   85  102 1   
    90   87   88 1   
    91   87   89 1   
    92   87   93 1   
    93   88   90 1   
    94   88   94 1   
    95   88   95 1   
    96   89   96 1   
    97   89   97 1   
    98   89   98 1   
    99   90   99 1   
   100   90  100 1   
   101   90  101 1   
   102  102  103 1   
   103  102  110 1   
   104  103  104 1   
   105  103  106 1   
   106  103  111 1   
   107  104  105 2   
   108  104  114 1   
   109  106  107 1   
   110  106  112 1   
   111  106  113 1   
   112  107  108 1   
   113  107  109 1   
   114  114  115 1   
   115  114  125 1   
   116  115  116 1   
   117  115  118 1   
   118  115  126 1   
   119  116  117 2   
   120  116  134 1   
   121  118  119 1   
   122  118  127 1   
   123  118  128 1   
   124  119  120 ar  
   125  119  121 ar  
   126  120  122 ar  
   127  120  129 1   
   128  121  123 ar  
   129  121  130 1   
   130  122  124 ar  
   131  122  131 1   
   132  123  124 ar  
   133  123  132 1   
   134  124  133 1   
   135  134  135 1   
   136  134  140 1   
   137  135  136 1   
   138  135  138 1   
   139  135  141 1   
   140  136  137 2   
   141  136  148 1   
   142  138  139 1   
   143  138  142 1   
   144  138  143 1   
   145  139  140 1   
   146  139  144 1   
   147  139  145 1   
   148  140  146 1   
   149  140  147 1   
   150  148  149 1   
   151  148  157 1   
   152  149  150 1   
   153  149  152 1   
   154  149  158 1   
   155  150  151 2   
   156  150  163 1   
   157  152  153 1   
   158  152  159 1   
   159  152  160 1   
   160  153  154 1   
   161  153  161 1   
   162  153  162 1   
   163  154  155 1   
   164  154  156 1   
   165  163  164 1   
   166  163  168 1   
   167  164  165 1   
   168  164  166 1   
   169  164  167 1   
   170  170  171 1   
   171  170  172 1   
@<TRIPOS>SUBSTRUCTURE
     1 MOL         1 TEMP              0 ****  ****    0 ROOT
