@<TRIPOS>MOLECULE
MOL
  179   176     1     0     0
SMALL
resp


@<TRIPOS>ATOM
      1 C1          1.7840    3.0600    6.7360 c3        1 MOL     -0.341659
      2 C2          1.5780    2.3490    5.4120 c         1 MOL      0.750526
      3 O1          2.5160    1.6310    5.0150 o         1 MOL     -0.579769
      4 H1          1.1380    3.9370    6.7800 hc        1 MOL      0.083433
      5 H2          1.5350    2.3850    7.5550 hc        1 MOL      0.083433
      6 H3          2.8250    3.3720    6.8230 hc        1 MOL      0.083433
      7 N1          0.5120    2.6760    4.7070 n         1 MOL     -0.675996
      8 C3          0.3850    2.4280    3.2300 c3        1 MOL      0.313673
      9 C4          0.9340    3.6980    2.4760 c         1 MOL      0.489667
     10 O2          0.8590    4.8350    2.9960 o         1 MOL     -0.543004
     11 C5         -0.9870    2.0220    2.8810 c3        1 MOL      0.079788
     12 C6         -1.2070    1.6200    1.4010 c         1 MOL      0.577904
     13 O3         -2.3700    1.6770    0.9110 o         1 MOL     -0.729262
     14 O4         -0.1930    1.2000    0.7800 o         1 MOL     -0.729262
     15 H4         -0.0350    3.4580    5.0350 hn        1 MOL      0.309234
     16 H5          1.1330    1.6590    3.0380 h1        1 MOL     -0.002264
     17 H6         -1.6390    2.8610    3.1090 hc        1 MOL     -0.027193
     18 H7         -1.2510    1.2120    3.5600 hc        1 MOL     -0.027193
     19 N2          1.3500    3.5490    1.2120 n         1 MOL     -0.338334
     20 C7          1.8200    4.7110    0.4000 c3        1 MOL     -0.099942
     21 C8          0.6800    5.5030   -0.2870 c         1 MOL      0.523416
     22 O5          0.7670    6.6810   -0.5220 o         1 MOL     -0.583943
     23 C9          2.9040    4.1540   -0.5210 c3        1 MOL      0.033824
     24 C10         3.8010    5.2150   -1.2480 c3        1 MOL      0.010913
     25 C11         4.5650    4.6500   -2.4420 c3        1 MOL      0.010763
     26 C12         5.7420    5.5150   -2.8450 c3        1 MOL      0.004676
     27 N3          5.4280    6.9650   -3.0030 n4        1 MOL     -0.219718
     28 H8          1.2150    2.6650    0.7550 hn        1 MOL      0.196467
     29 H9          2.2280    5.4630    1.0750 h1        1 MOL      0.097653
     30 H10         2.4740    3.5260   -1.3100 hc        1 MOL      0.033574
     31 H11         3.5390    3.5190    0.0850 hc        1 MOL      0.033574
     32 H12         4.5510    5.6890   -0.6070 hc        1 MOL     -0.005619
     33 H13         3.1010    5.9680   -1.5860 hc        1 MOL     -0.005619
     34 H14         3.8420    4.7290   -3.2580 hc        1 MOL      0.033350
     35 H15         4.8120    3.6000   -2.2760 hc        1 MOL      0.033350
     36 H16         6.1150    5.1630   -3.8010 hx        1 MOL      0.076033
     37 H17         6.5150    5.4830   -2.0790 hx        1 MOL      0.076033
     38 H18         4.7230    7.0520   -3.7150 hn        1 MOL      0.290017
     39 H19         5.0310    7.4060   -2.1750 hn        1 MOL      0.290017
     40 H20         6.2340    7.5410   -3.1710 hn        1 MOL      0.290017
     41 N4         -0.4350    4.8240   -0.5450 n         1 MOL     -0.196816
     42 C13        -1.6640    5.4920   -1.0490 c3        1 MOL      0.041118
     43 C14        -2.9960    5.2080   -0.2240 c         1 MOL      0.340257
     44 O6         -4.0420    5.6870   -0.6100 o         1 MOL     -0.492912
     45 C15        -1.9670    5.1660   -2.5640 c3        1 MOL     -0.329006
     46 C16        -1.9290    3.6700   -2.8530 c         1 MOL      0.801491
     47 O7         -1.8510    2.8500   -1.9200 o         1 MOL     -0.708409
     48 O8         -1.9660    3.3000   -4.0550 o         1 MOL     -0.708409
     49 H21        -0.4500    3.8160   -0.5440 hn        1 MOL      0.156691
     50 H22        -1.6080    6.5770   -0.9190 h1        1 MOL      0.113391
     51 H23        -1.3150    5.7020   -3.2550 hc        1 MOL      0.088112
     52 H24        -3.0070    5.3910   -2.7810 hc        1 MOL      0.088112
     53 N5         -2.9430    4.5050    0.8990 n         1 MOL     -0.152236
     54 C17        -4.1290    4.3270    1.7820 c3        1 MOL     -0.016534
     55 C18        -5.3060    3.5400    1.0980 c         1 MOL      0.395418
     56 O9         -6.4170    3.7680    1.4390 o         1 MOL     -0.508371
     57 H25        -2.0510    4.2890    1.3170 hn        1 MOL      0.118941
     58 H26        -4.3950    5.2910    2.1930 h1        1 MOL      0.060655
     59 H27        -3.7810    3.7390    2.6400 h1        1 MOL      0.060655
     60 N6         -4.9830    2.7520    0.0660 n         1 MOL     -0.190155
     61 C19        -6.0100    2.2140   -0.9010 c3        1 MOL     -0.035889
     62 C20        -6.7940    0.9700   -0.3690 c         1 MOL      0.459721
     63 O10        -7.9140    0.7800   -0.8490 o         1 MOL     -0.531060
     64 C21        -5.2010    1.8710   -2.1900 c3        1 MOL     -0.133860
     65 C22        -4.7920    0.4210   -2.2080 c         1 MOL      0.549388
     66 N7         -5.3150   -0.3490   -3.1430 n         1 MOL     -0.825014
     67 O11        -3.9690    0.0040   -1.5150 o         1 MOL     -0.464580
     68 H28        -4.0180    2.8260   -0.2110 hn        1 MOL      0.274562
     69 H29        -6.7610    2.9820   -1.0430 h1        1 MOL      0.117556
     70 H30        -4.3180    2.5100   -2.2410 hc        1 MOL      0.073010
     71 H31        -5.8170    2.0870   -3.0640 hc        1 MOL      0.073010
     72 H32        -6.1510   -0.0770   -3.6520 hn        1 MOL      0.371875
     73 H33        -5.0050   -1.2930   -3.3280 hn        1 MOL      0.371875
     74 N8         -6.2330    0.1500    0.5690 n         1 MOL     -0.309831
     75 C23        -6.8250   -1.1090    1.0640 c3        1 MOL      0.128013
     76 C24        -5.8950   -2.2380    1.2330 c         1 MOL      0.299791
     77 O12        -6.2480   -3.2050    1.8270 o         1 MOL     -0.473084
     78 H34        -5.3680    0.5200    0.9240 hn        1 MOL      0.195505
     79 H35        -7.5900   -1.4610    0.3740 h1        1 MOL      0.046567
     80 H36        -7.3510   -0.9940    2.0120 h1        1 MOL      0.046567
     81 N9         -4.7170   -2.1060    0.7030 n         1 MOL     -0.180525
     82 C25        -3.6630   -3.1180    0.6720 c3        1 MOL      0.233309
     83 C26        -2.2750   -2.4890    0.8140 c         1 MOL      0.202171
     84 O13        -2.0940   -1.3400    0.4100 o         1 MOL     -0.410750
     85 C27        -3.8360   -3.9730   -0.6060 c3        1 MOL     -0.010166
     86 C28        -5.1360   -4.6880   -0.6780 ca        1 MOL      0.127908
     87 C29        -5.2850   -5.8930    0.0480 ca        1 MOL     -0.345109
     88 C30        -6.1960   -4.0620   -1.3510 ca        1 MOL     -0.345109
     89 C31        -6.5320   -6.5960    0.0620 ca        1 MOL     -0.081629
     90 C32        -7.4730   -4.7100   -1.1860 ca        1 MOL     -0.081629
     91 C33        -7.6590   -5.9370   -0.5050 ca        1 MOL      0.165462
     92 O14        -8.9010   -6.3820   -0.2390 oh        1 MOL     -0.427205
     93 H37        -4.4700   -1.2540    0.2070 hn        1 MOL      0.106132
     94 H38        -3.7220   -3.7090    1.5920 h1        1 MOL      0.039609
     95 H39        -3.0850   -4.7630   -0.5740 hc        1 MOL      0.004882
     96 H40        -3.7460   -3.4290   -1.5410 hc        1 MOL      0.004882
     97 H41        -4.4880   -6.2420    0.6900 ha        1 MOL      0.187508
     98 H42        -6.1480   -3.0910   -1.8110 ha        1 MOL      0.187508
     99 H43        -6.7590   -7.5310    0.5580 ha        1 MOL      0.117144
    100 H44        -8.4010   -4.2840   -1.5610 ha        1 MOL      0.117144
    101 H45        -9.6170   -5.9720   -0.7300 ho        1 MOL      0.350725
    102 N10        -1.3120   -3.2820    1.2230 n         1 MOL     -0.353170
    103 C34         0.1360   -2.9340    1.2590 c3        1 MOL      0.043636
    104 C35         0.9770   -4.0740    0.6090 c         1 MOL      0.370139
    105 O15         0.7680   -5.2220    0.9790 o         1 MOL     -0.548001
    106 C36         0.5770   -2.6650    2.7300 c3        1 MOL      0.032996
    107 C37        -0.5470   -2.0870    3.6080 c3        1 MOL      0.032558
    108 C38         1.8490   -1.8290    2.7490 c3        1 MOL     -0.403589
    109 C39        -0.0890   -2.0420    5.0260 c3        1 MOL     -0.027122
    110 H46        -1.6130   -4.1670    1.5940 hn        1 MOL      0.270388
    111 H47         0.3250   -2.1180    0.5590 h1        1 MOL      0.025048
    112 H48         0.8600   -3.6330    3.1560 hc        1 MOL      0.052158
    113 H49        -1.4770   -2.6590    3.5610 hc        1 MOL      0.032611
    114 H50        -0.8520   -1.0640    3.3760 hc        1 MOL      0.032611
    115 H51         2.6210   -2.2560    2.1160 hc        1 MOL      0.105101
    116 H52         1.6420   -0.8330    2.3560 hc        1 MOL      0.105101
    117 H53         2.3040   -1.6320    3.7100 hc        1 MOL      0.105101
    118 H54        -0.9310   -1.9210    5.7090 hc        1 MOL      0.001573
    119 H55         0.2840   -3.0290    5.3190 hc        1 MOL      0.001573
    120 H56         0.6130   -1.2390    5.2450 hc        1 MOL      0.001573
    121 N11         1.8320   -3.6870   -0.2630 n         1 MOL     -0.033241
    122 C40         2.8320   -4.4980   -0.9460 c3        1 MOL     -0.168974
    123 C41         4.2640   -4.1820   -0.5110 c         1 MOL      0.633925
    124 O16         4.5000   -3.1400    0.0360 o         1 MOL     -0.436353
    125 C42         2.7140   -4.4340   -2.5340 c3        1 MOL      0.218732
    126 O17         1.7590   -3.5050   -2.9730 oh        1 MOL     -0.559586
    127 H57         1.9900   -2.6930   -0.3350 hn        1 MOL      0.208568
    128 H58         2.7080   -5.5430   -0.6460 h1        1 MOL      0.063090
    129 H59         2.6090   -5.4000   -3.0190 h1        1 MOL      0.013022
    130 H60         3.6760   -4.1360   -2.9400 h1        1 MOL      0.013022
    131 H61         0.8980   -3.8990   -2.7910 ho        1 MOL      0.364392
    132 N12         5.1800   -5.0560   -0.7620 n         1 MOL     -0.570328
    133 C43         6.4720   -5.1050   -0.1220 c3        1 MOL      0.205231
    134 C44         7.3040   -3.8460   -0.3710 c         1 MOL      0.448049
    135 O18         7.9180   -3.3950    0.5800 o         1 MOL     -0.496526
    136 C45         7.3410   -6.3200   -0.5920 c3        1 MOL     -0.433750
    137 H62         4.8720   -5.9180   -1.1920 hn        1 MOL      0.300835
    138 H63         6.3520   -5.0160    0.9590 h1        1 MOL      0.064825
    139 H64         8.3210   -6.2220   -0.1190 hc        1 MOL      0.133832
    140 H65         6.9630   -7.2890   -0.2630 hc        1 MOL      0.133832
    141 H66         7.5410   -6.2950   -1.6640 hc        1 MOL      0.133832
    142 N13         7.2400   -3.2700   -1.6160 n         1 MOL     -0.402959
    143 C46         7.7130   -1.9230   -1.9920 c3        1 MOL      0.195648
    144 C47         7.2300   -0.7340   -1.1000 c         1 MOL      0.409685
    145 O19         8.0270   -0.0040   -0.5400 o         1 MOL     -0.503152
    146 C48         7.3170   -1.6040   -3.4010 c3        1 MOL     -0.457683
    147 H67         6.6720   -3.8100   -2.2530 hn        1 MOL      0.239247
    148 H68         8.8030   -1.9840   -1.9620 h1        1 MOL      0.067208
    149 H69         7.7010   -2.3890   -4.0490 hc        1 MOL      0.126302
    150 H70         6.2340   -1.6870   -3.5350 hc        1 MOL      0.126302
    151 H71         7.6600   -0.5700   -3.4990 hc        1 MOL      0.126302
    152 N14         5.9140   -0.7170   -0.8630 n         1 MOL     -0.241371
    153 C49         5.2570    0.2810   -0.0380 c3        1 MOL     -0.216769
    154 C50         5.6380    0.1360    1.4710 c         1 MOL      0.432505
    155 O20         5.7780    1.1240    2.1860 o         1 MOL     -0.524523
    156 C51         3.7030    0.1860   -0.1450 c3        1 MOL      0.010179
    157 C52         3.3000    0.3530   -1.6140 c3        1 MOL     -0.051916
    158 C53         1.7330    0.2700   -1.6820 c         1 MOL      0.580099
    159 O21         1.0700    1.2920   -1.9840 o         1 MOL     -0.667071
    160 O22         1.1330   -0.8210   -1.4020 o         1 MOL     -0.667071
    161 H72         5.3700   -1.4790   -1.2560 hn        1 MOL      0.203844
    162 H73         5.5600    1.2930   -0.3290 h1        1 MOL      0.147600
    163 H74         3.2850    1.0070    0.4420 hc        1 MOL      0.049857
    164 H75         3.2680   -0.6790    0.3600 hc        1 MOL      0.049857
    165 H76         3.7030   -0.3600   -2.3370 hc        1 MOL      0.005496
    166 H77         3.5050    1.3360   -2.0540 hc        1 MOL      0.005496
    167 N15         5.9200   -1.1100    1.8690 n         1 MOL      0.001732
    168 C54         6.4150   -1.3710    3.2340 c3        1 MOL     -0.417233
    169 H78         6.7290   -2.4120    3.3140 h1        1 MOL      0.147982
    170 H79         7.2630   -0.7200    3.4440 h1        1 MOL      0.147982
    171 H80         5.6200   -1.1760    3.9530 h1        1 MOL      0.147982
    172 H81         5.6780   -1.8450    1.2310 hn        1 MOL      0.121471
    173 Ca1        -1.2510    0.3650   -1.3540 Ca        1 MOL      1.756484
    174 O23        -1.4200   -1.9600   -2.3890 oh        1 MOL     -0.873489
    175 H82        -0.6920   -2.5830   -2.5060 ho        1 MOL      0.406597
    176 H83        -2.1330   -2.3430   -2.8890 ho        1 MOL      0.406597
    177 O24        -1.6220    0.6480   -3.9940 oh        1 MOL     -0.873489
    178 H84        -1.9120   -0.0420   -4.5840 ho        1 MOL      0.406597
    179 H85        -1.8780    1.4570   -4.4270 ho        1 MOL      0.406597
@<TRIPOS>BOND
     1    1    2 1   
     2    1    4 1   
     3    1    5 1   
     4    1    6 1   
     5    2    3 2   
     6    2    7 1   
     7    7    8 1   
     8    7   15 1   
     9    8    9 1   
    10    8   11 1   
    11    8   16 1   
    12    9   10 2   
    13    9   19 1   
    14   11   12 1   
    15   11   17 1   
    16   11   18 1   
    17   12   13 1   
    18   12   14 1   
    19   19   20 1   
    20   19   28 1   
    21   20   21 1   
    22   20   23 1   
    23   20   29 1   
    24   21   22 2   
    25   21   41 1   
    26   23   24 1   
    27   23   30 1   
    28   23   31 1   
    29   24   25 1   
    30   24   32 1   
    31   24   33 1   
    32   25   26 1   
    33   25   34 1   
    34   25   35 1   
    35   26   27 1   
    36   26   36 1   
    37   26   37 1   
    38   27   38 1   
    39   27   39 1   
    40   27   40 1   
    41   41   42 1   
    42   41   49 1   
    43   42   43 1   
    44   42   45 1   
    45   42   50 1   
    46   43   44 2   
    47   43   53 1   
    48   45   46 1   
    49   45   51 1   
    50   45   52 1   
    51   46   47 1   
    52   46   48 1   
    53   53   54 1   
    54   53   57 1   
    55   54   55 1   
    56   54   58 1   
    57   54   59 1   
    58   55   56 2   
    59   55   60 1   
    60   60   61 1   
    61   60   68 1   
    62   61   62 1   
    63   61   64 1   
    64   61   69 1   
    65   62   63 2   
    66   62   74 1   
    67   64   65 1   
    68   64   70 1   
    69   64   71 1   
    70   65   66 1   
    71   65   67 2   
    72   66   72 1   
    73   66   73 1   
    74   74   75 1   
    75   74   78 1   
    76   75   76 1   
    77   75   79 1   
    78   75   80 1   
    79   76   77 2   
    80   76   81 1   
    81   81   82 1   
    82   81   93 1   
    83   82   83 1   
    84   82   85 1   
    85   82   94 1   
    86   83   84 2   
    87   83  102 1   
    88   85   86 1   
    89   85   95 1   
    90   85   96 1   
    91   86   87 ar  
    92   86   88 ar  
    93   87   89 ar  
    94   87   97 1   
    95   88   90 ar  
    96   88   98 1   
    97   89   91 ar  
    98   89   99 1   
    99   90   91 ar  
   100   90  100 1   
   101   91   92 1   
   102   92  101 1   
   103  102  103 1   
   104  102  110 1   
   105  103  104 1   
   106  103  106 1   
   107  103  111 1   
   108  104  105 2   
   109  104  121 1   
   110  106  107 1   
   111  106  108 1   
   112  106  112 1   
   113  107  109 1   
   114  107  113 1   
   115  107  114 1   
   116  108  115 1   
   117  108  116 1   
   118  108  117 1   
   119  109  118 1   
   120  109  119 1   
   121  109  120 1   
   122  121  122 1   
   123  121  127 1   
   124  122  123 1   
   125  122  125 1   
   126  122  128 1   
   127  123  124 2   
   128  123  132 1   
   129  125  126 1   
   130  125  129 1   
   131  125  130 1   
   132  126  131 1   
   133  132  133 1   
   134  132  137 1   
   135  133  134 1   
   136  133  136 1   
   137  133  138 1   
   138  134  135 2   
   139  134  142 1   
   140  136  139 1   
   141  136  140 1   
   142  136  141 1   
   143  142  143 1   
   144  142  147 1   
   145  143  144 1   
   146  143  146 1   
   147  143  148 1   
   148  144  145 2   
   149  144  152 1   
   150  146  149 1   
   151  146  150 1   
   152  146  151 1   
   153  152  153 1   
   154  152  161 1   
   155  153  154 1   
   156  153  156 1   
   157  153  162 1   
   158  154  155 2   
   159  154  167 1   
   160  156  157 1   
   161  156  163 1   
   162  156  164 1   
   163  157  158 1   
   164  157  165 1   
   165  157  166 1   
   166  158  159 1   
   167  158  160 1   
   168  167  168 1   
   169  167  172 1   
   170  168  169 1   
   171  168  170 1   
   172  168  171 1   
   173  174  175 1   
   174  174  176 1   
   175  177  178 1   
   176  177  179 1   
@<TRIPOS>SUBSTRUCTURE
     1 MOL         1 TEMP              0 ****  ****    0 ROOT
