@<TRIPOS>MOLECULE
MOL
  189   185     1     0     0
SMALL
resp


@<TRIPOS>ATOM
      1 C1          0.4840    3.7110   -4.6280 c3        1 MOL     -0.459956
      2 C2          0.8540    3.0930   -3.2410 c         1 MOL      0.684919
      3 O1          0.2420    3.3940   -2.2750 o         1 MOL     -0.588950
      4 H1          1.2400    3.4320   -5.3620 hc        1 MOL      0.114624
      5 H2         -0.4880    3.3350   -4.9470 hc        1 MOL      0.114624
      6 H3          0.4440    4.7970   -4.5430 hc        1 MOL      0.114624
      7 N1          1.9100    2.3590   -3.1610 n         1 MOL     -0.350869
      8 C3          2.4020    1.8040   -1.9280 c3        1 MOL      0.114875
      9 C4          3.2620    2.8110   -1.1770 c         1 MOL      0.324998
     10 O2          4.4240    3.0210   -1.5060 o         1 MOL     -0.487091
     11 C5          3.1790    0.4550   -2.1880 c3        1 MOL     -0.545697
     12 C6          3.9860   -0.0100   -0.9860 c         1 MOL      0.906402
     13 O3          3.4460    0.1920    0.1340 o         1 MOL     -0.700241
     14 O4          5.1340   -0.4320   -1.0950 o         1 MOL     -0.700241
     15 H4          2.4720    2.0930   -3.9580 hn        1 MOL      0.255304
     16 H5          1.4520    1.6500   -1.4150 h1        1 MOL      0.086233
     17 H6          3.8860    0.6370   -2.9950 hc        1 MOL      0.120953
     18 H7          2.4540   -0.2830   -2.5130 hc        1 MOL      0.120953
     19 N2          2.7250    3.5350   -0.1480 n         1 MOL     -0.269218
     20 C7          3.2950    4.7460    0.4670 c3        1 MOL     -0.034623
     21 C8          4.0950    4.3980    1.7550 c         1 MOL      0.435869
     22 O5          4.7610    5.2790    2.3080 o         1 MOL     -0.568028
     23 C9          2.3200    5.9290    0.4910 c3        1 MOL      0.055677
     24 C10         1.8160    6.3430   -0.9110 c3        1 MOL     -0.026590
     25 C11         2.9430    6.4450   -1.9060 c3        1 MOL     -0.196239
     26 C12         4.2330    7.1450   -1.4220 c3        1 MOL      0.211682
     27 N3          5.2580    7.1840   -2.4130 n4        1 MOL     -0.323798
     28 H8          1.8230    3.2060    0.1680 hn        1 MOL      0.280274
     29 H9          4.1290    4.9810   -0.2030 h1        1 MOL      0.068607
     30 H10         2.7850    6.7900    0.9920 hc        1 MOL      0.009258
     31 H11         1.4860    5.6850    1.1580 hc        1 MOL      0.009258
     32 H12         1.1720    7.2180   -0.8780 hc        1 MOL      0.058328
     33 H13         1.1940    5.5610   -1.3560 hc        1 MOL      0.058328
     34 H14         2.5800    7.0930   -2.7000 hc        1 MOL      0.044025
     35 H15         3.2130    5.4440   -2.2700 hc        1 MOL      0.044025
     36 H16         4.6950    6.6740   -0.5620 hx        1 MOL      0.019305
     37 H17         3.9550    8.1860   -1.2250 hx        1 MOL      0.019305
     38 H18         5.1490    6.3810   -3.0080 hn        1 MOL      0.314631
     39 H19         5.0990    7.9440   -3.0590 hn        1 MOL      0.314631
     40 H20         6.1340    7.3410   -1.9310 hn        1 MOL      0.314631
     41 N4          4.0230    3.1790    2.2750 n         1 MOL     -0.150320
     42 C13         4.9190    2.6380    3.2420 c3        1 MOL     -0.052773
     43 C14         6.0710    1.9000    2.7110 c         1 MOL      0.537553
     44 O6          6.9980    1.7700    3.5380 o         1 MOL     -0.562310
     45 C15         4.1970    1.8820    4.4280 c3        1 MOL     -0.238011
     46 C16         2.8500    1.0880    4.1200 c         1 MOL      0.714986
     47 O7          2.0650    0.9710    5.0770 o         1 MOL     -0.677307
     48 O8          2.6030    0.7280    2.9580 o         1 MOL     -0.677307
     49 H21         3.3620    2.5620    1.8180 hn        1 MOL      0.154295
     50 H22         5.4110    3.4770    3.7420 h1        1 MOL      0.110438
     51 H23         3.9160    2.6110    5.1950 hc        1 MOL      0.078988
     52 H24         4.7570    1.1170    4.9770 hc        1 MOL      0.078988
     53 N5          6.1160    1.4550    1.4420 n         1 MOL     -0.411727
     54 C17         7.2460    0.7080    0.9100 c3        1 MOL     -0.090437
     55 C18         7.2420   -0.8190    1.2460 c         1 MOL      0.462018
     56 O9          8.3340   -1.4010    1.1120 o         1 MOL     -0.580785
     57 H25         5.2780    1.4220    0.8830 hn        1 MOL      0.268821
     58 H26         8.1620    1.1950    1.2420 h1        1 MOL      0.107842
     59 H27         7.2630    0.8310   -0.1630 h1        1 MOL      0.107842
     60 N6          6.1270   -1.5330    1.5540 n         1 MOL     -0.140869
     61 C19         6.0570   -2.9930    1.8580 c3        1 MOL     -0.055046
     62 C20         5.9400   -3.8810    0.5880 c         1 MOL      0.381463
     63 O10         5.9800   -5.1320    0.6010 o         1 MOL     -0.530029
     64 C21         4.9560   -3.4040    2.8810 c3        1 MOL     -0.258012
     65 C22         3.6210   -2.9250    2.4340 c         1 MOL      0.807636
     66 O11         2.7910   -2.6350    3.3000 o         1 MOL     -0.714750
     67 O12         3.2330   -2.9430    1.2180 o         1 MOL     -0.714750
     68 H28         5.2500   -1.0210    1.5740 hn        1 MOL      0.112814
     69 H29         6.9970   -3.3820    2.2550 h1        1 MOL      0.116957
     70 H30         5.2120   -2.9250    3.8320 hc        1 MOL      0.085733
     71 H31         4.9420   -4.4930    2.8910 hc        1 MOL      0.085733
     72 N7          5.8820   -3.1850   -0.5330 n         1 MOL     -0.111162
     73 C23         5.8960   -3.8640   -1.7700 c3        1 MOL     -0.226650
     74 C24         4.5390   -4.5120   -2.1300 c         1 MOL      0.581686
     75 O13         4.4510   -5.4130   -2.9250 o         1 MOL     -0.573430
     76 H32         5.8750   -2.1800   -0.5470 hn        1 MOL      0.268274
     77 H33         6.5940   -4.6940   -1.6960 h1        1 MOL      0.097088
     78 H34         6.2420   -3.2100   -2.5670 h1        1 MOL      0.097088
     79 N8          3.4280   -4.1140   -1.5170 n         1 MOL     -0.217589
     80 C25         2.0850   -4.4960   -1.8480 c3        1 MOL     -0.204813
     81 C26         1.1850   -3.3150   -1.7350 c         1 MOL      0.846032
     82 O14         1.2790   -2.4270   -0.8740 o         1 MOL     -0.664625
     83 C27         1.6710   -5.6970   -1.0630 c3        1 MOL      0.445948
     84 C28         2.4540   -6.9810   -1.4150 c3        1 MOL     -0.399284
     85 O15         1.7130   -5.4130    0.3500 oh        1 MOL     -0.661175
     86 H35         3.5010   -3.4430   -0.7620 hn        1 MOL      0.066195
     87 H36         2.1020   -4.7610   -2.9060 h1        1 MOL      0.082346
     88 H37         0.6380   -5.8690   -1.3760 h1        1 MOL     -0.007764
     89 H38         2.4550   -4.8350    0.5290 ho        1 MOL      0.441333
     90 H39         1.9310   -7.8630   -1.0640 hc        1 MOL      0.107288
     91 H40         2.4500   -7.0690   -2.4920 hc        1 MOL      0.107288
     92 H41         3.4650   -6.9870   -0.9930 hc        1 MOL      0.107288
     93 N9          0.1200   -3.2540   -2.5380 n         1 MOL     -0.768664
     94 C29        -0.8610   -2.1040   -2.5970 c3        1 MOL      0.028048
     95 C30        -2.1260   -2.6900   -2.0200 c         1 MOL      0.516788
     96 O16        -2.6780   -3.7330   -2.5700 o         1 MOL     -0.587536
     97 C31        -1.1070   -1.5070   -4.0200 c3        1 MOL      0.354467
     98 C32         0.1780   -0.9680   -4.6780 c3        1 MOL      0.148903
     99 C33        -2.1000   -0.3430   -3.7670 c3        1 MOL     -0.559239
    100 C34         0.0310   -0.7800   -6.1820 c3        1 MOL     -0.241493
    101 H42        -0.1590   -4.0970   -3.0130 hn        1 MOL      0.330237
    102 H43        -0.4640   -1.3700   -1.8880 h1        1 MOL      0.124845
    103 H44        -1.4910   -2.2910   -4.6810 hc        1 MOL     -0.027573
    104 H45         1.0710   -1.5930   -4.5630 hc        1 MOL     -0.032435
    105 H46         0.4710   -0.0730   -4.1410 hc        1 MOL     -0.032435
    106 H47        -1.6960    0.4010   -3.0850 hc        1 MOL      0.098945
    107 H48        -2.3360    0.0980   -4.7330 hc        1 MOL      0.098945
    108 H49        -3.0160   -0.7570   -3.3610 hc        1 MOL      0.098945
    109 H50        -0.8430   -0.1480   -6.3440 hc        1 MOL      0.047260
    110 H51         0.8470   -0.2310   -6.6600 hc        1 MOL      0.047260
    111 H52        -0.1410   -1.7470   -6.6740 hc        1 MOL      0.047260
    112 N10        -2.6100   -2.1310   -0.9500 n         1 MOL     -0.200208
    113 C35        -3.8320   -2.5000   -0.2690 c3        1 MOL     -0.034192
    114 C36        -5.1070   -1.9490   -0.9760 c         1 MOL      0.442057
    115 O17        -5.0800   -1.1170   -1.8630 o         1 MOL     -0.390334
    116 C37        -3.7870   -2.0210    1.1910 c3        1 MOL      0.133623
    117 C38        -2.5830   -2.5690    1.8960 c3        1 MOL     -0.397123
    118 O18        -3.7440   -0.6350    1.3880 oh        1 MOL     -0.446752
    119 H53        -2.1790   -1.3100   -0.5420 hn        1 MOL      0.253705
    120 H54        -3.9920   -3.5760   -0.2860 h1        1 MOL      0.084109
    121 H55        -4.6790   -2.3350    1.7320 h1        1 MOL      0.018356
    122 H56        -3.1280   -0.3280    2.0560 ho        1 MOL      0.373399
    123 H57        -2.5850   -3.6470    1.7270 hc        1 MOL      0.112604
    124 H58        -1.7000   -2.1670    1.4070 hc        1 MOL      0.112604
    125 H59        -2.5770   -2.3490    2.9590 hc        1 MOL      0.112604
    126 N11        -6.2790   -2.2970   -0.4440 n         1 MOL     -0.419991
    127 C39        -7.5360   -1.6300   -0.7950 c3        1 MOL      0.020436
    128 C40        -7.5090   -0.1500   -0.3910 c         1 MOL      0.199540
    129 O19        -7.8520    0.6720   -1.2560 o         1 MOL     -0.458269
    130 C41        -8.6890   -2.2670    0.0020 c3        1 MOL      0.238819
    131 C42        -8.9200   -3.7620   -0.4380 c3        1 MOL     -0.524566
    132 O20        -8.3920   -2.2180    1.3140 oh        1 MOL     -0.544062
    133 H60        -6.3950   -2.9590    0.3030 hn        1 MOL      0.276951
    134 H61        -7.6650   -1.7170   -1.8670 h1        1 MOL      0.135636
    135 H62        -9.5530   -1.6580   -0.2730 h1        1 MOL      0.035830
    136 H63        -9.2050   -2.0150    1.7740 ho        1 MOL      0.376896
    137 H64        -9.2270   -3.7290   -1.4760 hc        1 MOL      0.153738
    138 H65        -8.0190   -4.3420   -0.2130 hc        1 MOL      0.153738
    139 H66        -9.6690   -4.2230    0.2040 hc        1 MOL      0.153738
    140 N12        -7.0500    0.2620    0.7910 n         1 MOL      0.010521
    141 C43        -7.0210    1.6320    1.2650 c3        1 MOL     -0.037484
    142 C44        -6.0840    2.4710    0.4210 c         1 MOL      0.279940
    143 O21        -6.3980    3.6730    0.1780 o         1 MOL     -0.483751
    144 C45        -6.3890    1.6470    2.6230 c3        1 MOL     -0.404164
    145 C46        -7.0790    0.7510    3.6370 c3        1 MOL      0.018168
    146 C47        -8.5020    1.1700    3.7720 c3        1 MOL      0.116057
    147 C48        -9.0870    0.1820    4.8580 c3        1 MOL     -0.150736
    148 N13       -10.5670    0.4630    5.1150 n4        1 MOL     -0.196772
    149 H67        -6.8070   -0.4400    1.4800 hn        1 MOL      0.133020
    150 H68        -7.9760    2.1460    1.3730 h1        1 MOL      0.081999
    151 H69        -6.4720    2.6580    3.0080 hc        1 MOL      0.154771
    152 H70        -5.3690    1.2770    2.5530 hc        1 MOL      0.154771
    153 H71        -6.5340    0.8340    4.5770 hc        1 MOL      0.021522
    154 H72        -7.0920   -0.3230    3.4890 hc        1 MOL      0.021522
    155 H73        -8.9690    1.0470    2.7910 hc        1 MOL      0.025050
    156 H74        -8.6130    2.2040    4.0960 hc        1 MOL      0.025050
    157 H75        -8.5380    0.3520    5.7920 hx        1 MOL      0.126141
    158 H76        -8.9590   -0.8490    4.5240 hx        1 MOL      0.126141
    159 H77       -11.0110   -0.2090    5.7320 hn        1 MOL      0.264079
    160 H78       -10.8140    1.3720    5.4670 hn        1 MOL      0.264079
    161 H79       -11.1000    0.3460    4.2660 hn        1 MOL      0.264079
    162 N14        -4.9640    1.9130   -0.0460 n         1 MOL      0.036606
    163 C49        -3.9250    2.7480   -0.7950 c3        1 MOL     -0.356672
    164 C50        -4.4960    3.0980   -2.2540 c         1 MOL      0.470969
    165 O22        -4.2420    4.2110   -2.6950 o         1 MOL     -0.514197
    166 C51        -2.5460    1.9940   -0.7680 c3        1 MOL      0.123300
    167 C52        -1.8320    2.0260    0.5940 c3        1 MOL     -0.084221
    168 C53        -0.6470    1.0580    0.5790 c         1 MOL      0.660405
    169 O23        -0.8170   -0.1420    0.2600 o         1 MOL     -0.730241
    170 O24         0.5000    1.4360    0.9340 o         1 MOL     -0.730241
    171 H80        -4.7300    0.9550    0.1770 hn        1 MOL      0.094787
    172 H81        -3.7260    3.7020   -0.3010 h1        1 MOL      0.174914
    173 H82        -2.0150    2.4000   -1.6270 hc        1 MOL      0.055736
    174 H83        -2.6340    0.9410   -1.0590 hc        1 MOL      0.055736
    175 H84        -2.4760    1.6180    1.3770 hc        1 MOL     -0.001783
    176 H85        -1.5660    3.0510    0.8610 hc        1 MOL     -0.001783
    177 N15        -5.4270    2.2850   -2.7990 n         1 MOL     -0.178538
    178 C54        -6.2420    2.6220   -4.0570 c3        1 MOL     -0.107867
    179 H86        -7.2690    2.8520   -3.7730 h1        1 MOL      0.074706
    180 H87        -5.8010    3.4850   -4.5560 h1        1 MOL      0.074706
    181 H88        -6.2360    1.7670   -4.7330 h1        1 MOL      0.074706
    182 H89        -5.6330    1.4350   -2.2910 hn        1 MOL      0.169750
    183 Ca1         1.4550   -0.9790    1.4290 Ca        1 MOL      1.713154
    184 O25        -0.1670   -0.5260    3.4740 oh        1 MOL     -0.797934
    185 H90        -1.0840   -0.4660    3.7480 ho        1 MOL      0.384671
    186 H91         0.2880    0.1200    4.0120 ho        1 MOL      0.384671
    187 O26         0.4140   -3.4510    1.9110 oh        1 MOL     -0.797934
    188 H92         0.4610   -3.7200    2.8260 ho        1 MOL      0.384671
    189 H93         0.3890   -4.2710    1.4180 ho        1 MOL      0.384671
@<TRIPOS>BOND
     1    1    2 1   
     2    1    4 1   
     3    1    5 1   
     4    1    6 1   
     5    2    3 2   
     6    2    7 1   
     7    7    8 1   
     8    7   15 1   
     9    8    9 1   
    10    8   11 1   
    11    8   16 1   
    12    9   10 2   
    13    9   19 1   
    14   11   12 1   
    15   11   17 1   
    16   11   18 1   
    17   12   13 1   
    18   12   14 1   
    19   19   20 1   
    20   19   28 1   
    21   20   21 1   
    22   20   23 1   
    23   20   29 1   
    24   21   22 2   
    25   21   41 1   
    26   23   24 1   
    27   23   30 1   
    28   23   31 1   
    29   24   25 1   
    30   24   32 1   
    31   24   33 1   
    32   25   26 1   
    33   25   34 1   
    34   25   35 1   
    35   26   27 1   
    36   26   36 1   
    37   26   37 1   
    38   27   38 1   
    39   27   39 1   
    40   27   40 1   
    41   41   42 1   
    42   41   49 1   
    43   42   43 1   
    44   42   45 1   
    45   42   50 1   
    46   43   44 2   
    47   43   53 1   
    48   45   46 1   
    49   45   51 1   
    50   45   52 1   
    51   46   47 1   
    52   46   48 1   
    53   53   54 1   
    54   53   57 1   
    55   54   55 1   
    56   54   58 1   
    57   54   59 1   
    58   55   56 2   
    59   55   60 1   
    60   60   61 1   
    61   60   68 1   
    62   61   62 1   
    63   61   64 1   
    64   61   69 1   
    65   62   63 2   
    66   62   72 1   
    67   64   65 1   
    68   64   70 1   
    69   64   71 1   
    70   65   66 1   
    71   65   67 1   
    72   72   73 1   
    73   72   76 1   
    74   73   74 1   
    75   73   77 1   
    76   73   78 1   
    77   74   75 2   
    78   74   79 1   
    79   79   80 1   
    80   79   86 1   
    81   80   81 1   
    82   80   83 1   
    83   80   87 1   
    84   81   82 2   
    85   81   93 1   
    86   83   84 1   
    87   83   85 1   
    88   83   88 1   
    89   84   90 1   
    90   84   91 1   
    91   84   92 1   
    92   85   89 1   
    93   93   94 1   
    94   93  101 1   
    95   94   95 1   
    96   94   97 1   
    97   94  102 1   
    98   95   96 2   
    99   95  112 1   
   100   97   98 1   
   101   97   99 1   
   102   97  103 1   
   103   98  100 1   
   104   98  104 1   
   105   98  105 1   
   106   99  106 1   
   107   99  107 1   
   108   99  108 1   
   109  100  109 1   
   110  100  110 1   
   111  100  111 1   
   112  112  113 1   
   113  112  119 1   
   114  113  114 1   
   115  113  116 1   
   116  113  120 1   
   117  114  115 2   
   118  114  126 1   
   119  116  117 1   
   120  116  118 1   
   121  116  121 1   
   122  117  123 1   
   123  117  124 1   
   124  117  125 1   
   125  118  122 1   
   126  126  127 1   
   127  126  133 1   
   128  127  128 1   
   129  127  130 1   
   130  127  134 1   
   131  128  129 2   
   132  128  140 1   
   133  130  131 1   
   134  130  132 1   
   135  130  135 1   
   136  131  137 1   
   137  131  138 1   
   138  131  139 1   
   139  132  136 1   
   140  140  141 1   
   141  140  149 1   
   142  141  142 1   
   143  141  144 1   
   144  141  150 1   
   145  142  143 2   
   146  142  162 1   
   147  144  145 1   
   148  144  151 1   
   149  144  152 1   
   150  145  146 1   
   151  145  153 1   
   152  145  154 1   
   153  146  147 1   
   154  146  155 1   
   155  146  156 1   
   156  147  148 1   
   157  147  157 1   
   158  147  158 1   
   159  148  159 1   
   160  148  160 1   
   161  148  161 1   
   162  162  163 1   
   163  162  171 1   
   164  163  164 1   
   165  163  166 1   
   166  163  172 1   
   167  164  165 2   
   168  164  177 1   
   169  166  167 1   
   170  166  173 1   
   171  166  174 1   
   172  167  168 1   
   173  167  175 1   
   174  167  176 1   
   175  168  169 1   
   176  168  170 1   
   177  177  178 1   
   178  177  182 1   
   179  178  179 1   
   180  178  180 1   
   181  178  181 1   
   182  184  185 1   
   183  184  186 1   
   184  187  188 1   
   185  187  189 1   
@<TRIPOS>SUBSTRUCTURE
     1 MOL         1 TEMP              0 ****  ****    0 ROOT
