@<TRIPOS>MOLECULE
MOL
  179   176     1     0     0
SMALL
resp


@<TRIPOS>ATOM
      1 C1          0.9840    4.0500    5.1880 c3        1 MOL     -0.407151
      2 C2          0.4970    3.5460    3.7750 c         1 MOL      0.553163
      3 O1          1.3480    3.4060    2.9250 o         1 MOL     -0.492867
      4 H1          1.7660    4.7990    5.0570 hc        1 MOL      0.111214
      5 H2          0.1450    4.4930    5.7260 hc        1 MOL      0.111214
      6 H3          1.3790    3.2100    5.7590 hc        1 MOL      0.111214
      7 N1         -0.8120    3.3150    3.5120 n         1 MOL     -0.499053
      8 C3         -1.3570    2.8760    2.2180 c3        1 MOL     -0.118439
      9 C4         -1.8910    4.0990    1.3690 c         1 MOL      0.665881
     10 O2         -3.0530    4.4310    1.5130 o         1 MOL     -0.533936
     11 C5         -2.4900    1.8430    2.4280 c3        1 MOL     -0.005611
     12 C6         -3.0560    1.0110    1.2420 c         1 MOL      0.520497
     13 O3         -2.3220    0.7910    0.2550 o         1 MOL     -0.674540
     14 O4         -4.1980    0.5460    1.4000 o         1 MOL     -0.674540
     15 H4         -1.4860    3.4460    4.2450 hn        1 MOL      0.321129
     16 H5         -0.4910    2.4180    1.7380 h1        1 MOL      0.046007
     17 H6         -3.2530    2.4160    2.9460 hc        1 MOL      0.036364
     18 H7         -2.1880    1.1750    3.2420 hc        1 MOL      0.036364
     19 N2         -1.0350    4.7840    0.5680 n         1 MOL     -0.507155
     20 C7         -1.4690    6.0260   -0.1340 c3        1 MOL      0.068927
     21 C8         -2.3020    5.8160   -1.3410 c         1 MOL      0.316054
     22 O5         -2.9630    6.7640   -1.7230 o         1 MOL     -0.546554
     23 C9         -0.2170    6.8890   -0.3870 c3        1 MOL     -0.071225
     24 C10         0.6770    7.1190    0.7800 c3        1 MOL     -0.118077
     25 C11         0.2630    7.9430    1.9770 c3        1 MOL     -0.198927
     26 C12         0.2280    9.4020    1.6490 c3        1 MOL     -0.037496
     27 N3         -0.6800   10.1680    2.5460 n4        1 MOL     -0.311613
     28 H8         -0.0590    4.5500    0.5310 hn        1 MOL      0.346354
     29 H9         -2.0750    6.6260    0.5470 h1        1 MOL      0.089573
     30 H10        -0.4360    7.8490   -0.8570 hc        1 MOL      0.058692
     31 H11         0.4170    6.3470   -1.0860 hc        1 MOL      0.058692
     32 H12         1.6020    7.5360    0.3900 hc        1 MOL      0.089344
     33 H13         0.9620    6.1460    1.1670 hc        1 MOL      0.089344
     34 H14         1.0990    7.9430    2.6760 hc        1 MOL      0.099948
     35 H15        -0.6650    7.5310    2.3580 hc        1 MOL      0.099948
     36 H16        -0.2030    9.5240    0.6560 hx        1 MOL      0.117510
     37 H17         1.2880    9.6590    1.6840 hx        1 MOL      0.117510
     38 H18        -1.6200    9.8760    2.3320 hn        1 MOL      0.322231
     39 H19        -0.5080   10.1060    3.5380 hn        1 MOL      0.322231
     40 H20        -0.7790   11.1450    2.3110 hn        1 MOL      0.322231
     41 N4         -2.4540    4.6050   -1.8650 n         1 MOL     -0.204625
     42 C13        -3.4140    4.2260   -2.9600 c3        1 MOL      0.153801
     43 C14        -4.6470    3.4980   -2.3560 c         1 MOL      0.387840
     44 O6         -5.5430    3.1700   -3.1030 o         1 MOL     -0.518735
     45 C15        -2.7670    3.2820   -3.9810 c3        1 MOL     -0.416517
     46 C16        -2.1410    2.1030   -3.2340 c         1 MOL      0.928472
     47 O7         -2.6970    0.9970   -3.2640 o         1 MOL     -0.797380
     48 O8         -1.1660    2.1960   -2.5820 o         1 MOL     -0.797380
     49 H21        -1.8390    3.8920   -1.4870 hn        1 MOL      0.222382
     50 H22        -3.7970    5.1490   -3.3900 h1        1 MOL      0.092628
     51 H23        -1.9260    3.8530   -4.4010 hc        1 MOL      0.101104
     52 H24        -3.4780    2.8500   -4.6930 hc        1 MOL      0.101104
     53 N5         -4.7680    3.2950   -1.0460 n         1 MOL     -0.218716
     54 C17        -5.8630    2.6590   -0.3330 c3        1 MOL     -0.134372
     55 C18        -6.3940    1.2960   -0.8080 c         1 MOL      0.552719
     56 O9         -7.5140    1.0240   -0.4270 o         1 MOL     -0.581155
     57 H25        -3.9600    3.4840   -0.4650 hn        1 MOL      0.169491
     58 H26        -6.7030    3.3550   -0.3460 h1        1 MOL      0.095959
     59 H27        -5.5230    2.6170    0.7040 h1        1 MOL      0.095959
     60 N6         -5.6100    0.4540   -1.4500 n         1 MOL     -0.201739
     61 C19        -6.0990   -0.8750   -1.8650 c3        1 MOL     -0.150859
     62 C20        -6.3250   -1.8530   -0.6690 c         1 MOL      0.413672
     63 O10        -7.0020   -2.8310   -0.8570 o         1 MOL     -0.529235
     64 C21        -5.2540   -1.3450   -3.0410 c3        1 MOL     -0.029936
     65 C22        -4.1110   -2.2230   -2.5910 c         1 MOL      0.387949
     66 N7         -4.1480   -3.4630   -2.9980 n         1 MOL     -0.511670
     67 O11        -3.2690   -1.7830   -1.8710 o         1 MOL     -0.570457
     68 H28        -4.6310    0.6300   -1.6500 hn        1 MOL      0.204186
     69 H29        -7.0940   -0.6970   -2.2830 h1        1 MOL      0.127473
     70 H30        -4.9540   -0.5790   -3.7400 hc        1 MOL      0.061410
     71 H31        -5.8960   -1.9390   -3.6970 hc        1 MOL      0.061410
     72 H32        -4.8630   -3.7770   -3.6470 hn        1 MOL      0.291338
     73 H33        -3.3020   -4.0150   -3.0350 hn        1 MOL      0.291338
     74 N8         -5.8580   -1.5490    0.4570 n         1 MOL     -0.109958
     75 C23        -5.8180   -2.4090    1.6830 c3        1 MOL     -0.309642
     76 C24        -4.4710   -3.0790    1.9960 c         1 MOL      0.598229
     77 O12        -4.3520   -3.7440    3.0480 o         1 MOL     -0.589567
     78 H34        -5.4170   -0.6530    0.5720 hn        1 MOL      0.272411
     79 H35        -6.5770   -3.1770    1.5310 h1        1 MOL      0.144916
     80 H36        -6.0550   -1.8570    2.6020 h1        1 MOL      0.144916
     81 N9         -3.4230   -2.9880    1.1790 n         1 MOL     -0.193475
     82 C25        -2.1650   -3.7110    1.3820 c3        1 MOL     -0.079757
     83 C26        -0.9430   -2.8630    1.0620 c         1 MOL      0.508838
     84 O13        -1.0220   -2.0980    0.1400 o         1 MOL     -0.515030
     85 C27        -2.1300   -4.9600    0.4680 c3        1 MOL      0.266971
     86 C28        -3.2120   -6.0520    0.6970 ca        1 MOL     -0.166357
     87 C29        -4.4840   -5.7710    0.2230 ca        1 MOL     -0.109365
     88 C30        -2.9450   -7.1800    1.4700 ca        1 MOL     -0.109365
     89 C31        -5.5740   -6.5840    0.6610 ca        1 MOL     -0.197774
     90 C32        -4.0000   -8.0750    1.8020 ca        1 MOL     -0.197774
     91 C33        -5.2840   -7.7500    1.4650 ca        1 MOL      0.294495
     92 O14        -6.2950   -8.6840    1.6130 oh        1 MOL     -0.474106
     93 H37        -3.4380   -2.3130    0.4240 hn        1 MOL      0.220951
     94 H38        -2.1170   -4.0630    2.4090 h1        1 MOL      0.077363
     95 H39        -1.1650   -5.4630    0.4650 hc        1 MOL     -0.033357
     96 H40        -2.0430   -4.6770   -0.5820 hc        1 MOL     -0.033357
     97 H41        -4.7290   -4.8790   -0.3430 ha        1 MOL      0.094349
     98 H42        -1.9750   -7.4020    1.8880 ha        1 MOL      0.094349
     99 H43        -6.5410   -6.4070    0.2190 ha        1 MOL      0.131240
    100 H44        -3.8470   -9.0160    2.3100 ha        1 MOL      0.131240
    101 H45        -6.0110   -9.3490    2.2440 ho        1 MOL      0.336504
    102 N10         0.1530   -3.0880    1.8090 n         1 MOL     -0.482800
    103 C34         1.4030   -2.2640    1.7300 c3        1 MOL     -0.063012
    104 C35         2.5650   -3.2310    1.4140 c         1 MOL      0.556860
    105 O15         2.9180   -4.0960    2.1770 o         1 MOL     -0.539318
    106 C36         1.5570   -1.3890    3.0450 c3        1 MOL      0.148749
    107 C37         0.3440   -0.5540    3.3740 c3        1 MOL      0.211852
    108 C38         2.8700   -0.5590    3.0620 c3        1 MOL     -0.283189
    109 C39         0.4240   -0.0990    4.8540 c3        1 MOL     -0.467498
    110 H46         0.1330   -3.8100    2.5060 hn        1 MOL      0.299682
    111 H47         1.3200   -1.5260    0.9420 h1        1 MOL     -0.055799
    112 H48         1.7220   -2.0440    3.9130 hc        1 MOL     -0.005918
    113 H49        -0.5390   -1.1810    3.3850 hc        1 MOL      0.013516
    114 H50         0.2790    0.3970    2.8330 hc        1 MOL      0.013516
    115 H51         3.1770   -0.3470    4.0880 hc        1 MOL      0.077457
    116 H52         3.7820   -0.9870    2.6510 hc        1 MOL      0.077457
    117 H53         2.5620    0.4070    2.6570 hc        1 MOL      0.077457
    118 H54         1.2630    0.6010    4.9370 hc        1 MOL      0.112195
    119 H55        -0.5120    0.4470    4.9750 hc        1 MOL      0.112195
    120 H56         0.5210   -0.9550    5.5270 hc        1 MOL      0.112195
    121 N11         3.1840   -3.0170    0.2320 n         1 MOL     -0.260246
    122 C40         4.4090   -3.6410   -0.2480 c3        1 MOL     -0.199455
    123 C41         5.7310   -3.0020    0.3180 c         1 MOL      0.536998
    124 O16         5.7210   -1.7760    0.6310 o         1 MOL     -0.387952
    125 C42         4.4560   -3.7030   -1.8080 c3        1 MOL     -0.037470
    126 O17         4.3360   -2.4270   -2.4230 oh        1 MOL     -0.509998
    127 H57         2.8200   -2.2480   -0.3100 hn        1 MOL      0.302439
    128 H58         4.4380   -4.6800    0.1080 h1        1 MOL      0.090045
    129 H59         3.5160   -4.1650   -2.0980 h1        1 MOL      0.090020
    130 H60         5.3250   -4.2780   -2.1430 h1        1 MOL      0.090020
    131 H61         3.5800   -2.0370   -1.9780 ho        1 MOL      0.360213
    132 N12         6.8150   -3.7210    0.2850 n         1 MOL     -0.468867
    133 C43         8.0820   -3.1270    0.7070 c3        1 MOL      0.150386
    134 C44         8.4490   -1.8880   -0.0900 c         1 MOL      0.512857
    135 O18         8.8950   -0.8660    0.4020 o         1 MOL     -0.521130
    136 C45         9.2740   -4.1670    0.4970 c3        1 MOL     -0.247509
    137 H62         6.8100   -4.6990    0.0350 hn        1 MOL      0.320157
    138 H63         8.0270   -2.7650    1.7380 h1        1 MOL      0.061804
    139 H64        10.0340   -3.8920    1.2280 hc        1 MOL      0.075049
    140 H65         8.8860   -5.1690    0.6300 hc        1 MOL      0.075049
    141 H66         9.6040   -4.0880   -0.5450 hc        1 MOL      0.075049
    142 N13         8.1150   -1.9170   -1.3950 n         1 MOL     -0.390787
    143 C46         8.4470   -0.9400   -2.4090 c3        1 MOL      0.150004
    144 C47         7.7350    0.3830   -2.2370 c         1 MOL      0.395577
    145 O19         8.1910    1.4410   -2.7680 o         1 MOL     -0.541631
    146 C48         8.0730   -1.4960   -3.8620 c3        1 MOL     -0.510436
    147 H67         7.5900   -2.7100   -1.7470 hn        1 MOL      0.276245
    148 H68         9.4970   -0.6620   -2.3340 h1        1 MOL      0.073728
    149 H69         8.7990   -2.3010   -3.9770 hc        1 MOL      0.153300
    150 H70         7.0200   -1.7580   -3.8670 hc        1 MOL      0.153300
    151 H71         8.2310   -0.6880   -4.5740 hc        1 MOL      0.153300
    152 N14         6.5900    0.3090   -1.5260 n         1 MOL     -0.056337
    153 C49         5.8350    1.5330   -1.1820 c3        1 MOL      0.042489
    154 C50         6.1450    2.0510    0.2070 c         1 MOL      0.435119
    155 O20         6.1510    3.3070    0.4430 o         1 MOL     -0.539782
    156 C51         4.3370    1.3990   -1.5670 c3        1 MOL     -0.029193
    157 C52         3.5540    0.5090   -0.4700 c3        1 MOL     -0.120522
    158 C53         2.2010    0.1680   -1.0010 c         1 MOL      0.775420
    159 O21         1.2500    0.9970   -0.9080 o         1 MOL     -0.718597
    160 O22         1.9890   -0.9720   -1.5100 o         1 MOL     -0.718597
    161 H72         6.3800   -0.5360   -1.0280 hn        1 MOL     -0.094329
    162 H73         6.1670    2.3790   -1.7810 h1        1 MOL      0.059128
    163 H74         4.3390    0.8420   -2.5070 hc        1 MOL      0.027858
    164 H75         3.8450    2.3670   -1.6380 hc        1 MOL      0.027858
    165 H76         3.3990    0.9560    0.5160 hc        1 MOL      0.028225
    166 H77         4.0660   -0.4520   -0.3440 hc        1 MOL      0.028225
    167 N15         6.2910    1.0810    1.1380 n         1 MOL     -0.133816
    168 C54         6.5710    1.5350    2.5180 c3        1 MOL     -0.323803
    169 H78         7.4410    2.1910    2.5140 h1        1 MOL      0.118640
    170 H79         5.7080    2.0780    2.9040 h1        1 MOL      0.118640
    171 H80         6.7700    0.6710    3.1520 h1        1 MOL      0.118640
    172 H81         6.2270    0.0840    0.9870 hn        1 MOL      0.193892
    173 Ca1        -0.9300   -0.2880   -1.6900 Ca        1 MOL      1.708864
    174 O23        -0.1520   -2.8210   -2.7090 oh        1 MOL     -0.762134
    175 H82         0.1620   -3.6590   -2.3860 ho        1 MOL      0.382698
    176 H83         0.0230   -2.8480   -3.6550 ho        1 MOL      0.382698
    177 O24         0.3120   -0.1980   -4.0380 oh        1 MOL     -0.762134
    178 H84         0.4250   -0.9470   -4.6310 ho        1 MOL      0.382698
    179 H85        -0.0360    0.4930   -4.6040 ho        1 MOL      0.382698
@<TRIPOS>BOND
     1    1    2 1   
     2    1    4 1   
     3    1    5 1   
     4    1    6 1   
     5    2    3 2   
     6    2    7 1   
     7    7    8 1   
     8    7   15 1   
     9    8    9 1   
    10    8   11 1   
    11    8   16 1   
    12    9   10 2   
    13    9   19 1   
    14   11   12 1   
    15   11   17 1   
    16   11   18 1   
    17   12   13 1   
    18   12   14 1   
    19   19   20 1   
    20   19   28 1   
    21   20   21 1   
    22   20   23 1   
    23   20   29 1   
    24   21   22 2   
    25   21   41 1   
    26   23   24 1   
    27   23   30 1   
    28   23   31 1   
    29   24   25 1   
    30   24   32 1   
    31   24   33 1   
    32   25   26 1   
    33   25   34 1   
    34   25   35 1   
    35   26   27 1   
    36   26   36 1   
    37   26   37 1   
    38   27   38 1   
    39   27   39 1   
    40   27   40 1   
    41   41   42 1   
    42   41   49 1   
    43   42   43 1   
    44   42   45 1   
    45   42   50 1   
    46   43   44 2   
    47   43   53 1   
    48   45   46 1   
    49   45   51 1   
    50   45   52 1   
    51   46   47 1   
    52   46   48 1   
    53   53   54 1   
    54   53   57 1   
    55   54   55 1   
    56   54   58 1   
    57   54   59 1   
    58   55   56 2   
    59   55   60 1   
    60   60   61 1   
    61   60   68 1   
    62   61   62 1   
    63   61   64 1   
    64   61   69 1   
    65   62   63 2   
    66   62   74 1   
    67   64   65 1   
    68   64   70 1   
    69   64   71 1   
    70   65   66 1   
    71   65   67 2   
    72   66   72 1   
    73   66   73 1   
    74   74   75 1   
    75   74   78 1   
    76   75   76 1   
    77   75   79 1   
    78   75   80 1   
    79   76   77 2   
    80   76   81 1   
    81   81   82 1   
    82   81   93 1   
    83   82   83 1   
    84   82   85 1   
    85   82   94 1   
    86   83   84 2   
    87   83  102 1   
    88   85   86 1   
    89   85   95 1   
    90   85   96 1   
    91   86   87 ar  
    92   86   88 ar  
    93   87   89 ar  
    94   87   97 1   
    95   88   90 ar  
    96   88   98 1   
    97   89   91 ar  
    98   89   99 1   
    99   90   91 ar  
   100   90  100 1   
   101   91   92 1   
   102   92  101 1   
   103  102  103 1   
   104  102  110 1   
   105  103  104 1   
   106  103  106 1   
   107  103  111 1   
   108  104  105 2   
   109  104  121 1   
   110  106  107 1   
   111  106  108 1   
   112  106  112 1   
   113  107  109 1   
   114  107  113 1   
   115  107  114 1   
   116  108  115 1   
   117  108  116 1   
   118  108  117 1   
   119  109  118 1   
   120  109  119 1   
   121  109  120 1   
   122  121  122 1   
   123  121  127 1   
   124  122  123 1   
   125  122  125 1   
   126  122  128 1   
   127  123  124 2   
   128  123  132 1   
   129  125  126 1   
   130  125  129 1   
   131  125  130 1   
   132  126  131 1   
   133  132  133 1   
   134  132  137 1   
   135  133  134 1   
   136  133  136 1   
   137  133  138 1   
   138  134  135 2   
   139  134  142 1   
   140  136  139 1   
   141  136  140 1   
   142  136  141 1   
   143  142  143 1   
   144  142  147 1   
   145  143  144 1   
   146  143  146 1   
   147  143  148 1   
   148  144  145 2   
   149  144  152 1   
   150  146  149 1   
   151  146  150 1   
   152  146  151 1   
   153  152  153 1   
   154  152  161 1   
   155  153  154 1   
   156  153  156 1   
   157  153  162 1   
   158  154  155 2   
   159  154  167 1   
   160  156  157 1   
   161  156  163 1   
   162  156  164 1   
   163  157  158 1   
   164  157  165 1   
   165  157  166 1   
   166  158  159 1   
   167  158  160 1   
   168  167  168 1   
   169  167  172 1   
   170  168  169 1   
   171  168  170 1   
   172  168  171 1   
   173  174  175 1   
   174  174  176 1   
   175  177  178 1   
   176  177  179 1   
@<TRIPOS>SUBSTRUCTURE
     1 MOL         1 TEMP              0 ****  ****    0 ROOT
