@<TRIPOS>MOLECULE
MOL
  175   173     1     0     0
SMALL
resp


@<TRIPOS>ATOM
      1 C1          0.6780    3.8050    5.7220 c3        1 MOL     -0.376134
      2 C2          0.0780    3.9300    4.2650 c         1 MOL      0.668366
      3 O1          0.6730    4.5820    3.3790 o         1 MOL     -0.567905
      4 H1          1.4690    4.5440    5.8520 hc        1 MOL      0.095902
      5 H2         -0.1080    3.9820    6.4560 hc        1 MOL      0.095902
      6 H3          1.0880    2.8050    5.8620 hc        1 MOL      0.095902
      7 N1         -1.0690    3.3250    3.9340 n         1 MOL     -0.581384
      8 C3         -1.8290    3.2840    2.6700 c3        1 MOL      0.095011
      9 C4         -2.0440    4.5630    1.8730 c         1 MOL      0.753025
     10 O2         -2.3340    5.6170    2.4420 o         1 MOL     -0.616633
     11 C5         -3.2180    2.6840    3.0730 c3        1 MOL     -0.189638
     12 C6         -4.0740    2.5280    1.8130 c         1 MOL      0.524759
     13 O3         -5.2510    2.9680    1.7910 o         1 MOL     -0.594266
     14 O4         -3.5340    2.0720    0.7970 o         1 MOL     -0.594266
     15 H4         -1.4730    2.8920    4.7500 hn        1 MOL      0.282952
     16 H5         -1.4220    2.5430    1.9930 h1        1 MOL      0.118179
     17 H6         -3.8100    3.3370    3.7200 hc        1 MOL      0.029878
     18 H7         -3.0600    1.7450    3.5890 hc        1 MOL      0.029878
     19 N2         -1.9410    4.3440    0.5890 n         1 MOL     -0.759176
     20 C7         -2.2370    5.4200   -0.3580 c3        1 MOL      0.498092
     21 C8         -3.1280    5.0360   -1.5750 c         1 MOL      0.434016
     22 O5         -3.2520    5.8460   -2.3960 o         1 MOL     -0.564435
     23 C9         -0.9370    5.9340   -0.8770 c3        1 MOL     -0.300094
     24 H8         -1.5780    3.4770    0.2320 hn        1 MOL      0.444214
     25 H9         -2.7820    6.2810    0.0280 h1        1 MOL     -0.031439
     26 H10        -0.4260    5.2530   -1.5550 hc        1 MOL      0.058345
     27 H11        -1.1220    6.9060   -1.3450 hc        1 MOL      0.058345
     28 H12        -0.3220    6.1110   -0.0030 hc        1 MOL      0.058345
     29 N3         -3.7230    3.8760   -1.5890 n         1 MOL     -0.258089
     30 C10        -4.6690    3.5610   -2.6060 c3        1 MOL      0.055850
     31 C11        -5.8270    2.6870   -2.2200 c         1 MOL      0.438460
     32 O6         -6.6710    2.4020   -3.0980 o         1 MOL     -0.556865
     33 C12        -3.9050    2.9220   -3.7600 c3        1 MOL     -0.169729
     34 C13        -2.8960    1.7710   -3.4800 c         1 MOL      0.722839
     35 O7         -2.9710    1.1710   -2.3490 o         1 MOL     -0.690833
     36 O8         -2.1210    1.3870   -4.4150 o         1 MOL     -0.690833
     37 H13        -3.6020    3.1690   -0.8790 hn        1 MOL      0.115346
     38 H14        -5.1460    4.4730   -2.9700 h1        1 MOL      0.066187
     39 H15        -3.2720    3.6560   -4.2570 hc        1 MOL      0.030533
     40 H16        -4.6260    2.4830   -4.4510 hc        1 MOL      0.030533
     41 N4         -5.9220    2.1440   -0.9670 n         1 MOL     -0.211987
     42 C14        -7.0510    1.4440   -0.4350 c3        1 MOL     -0.134163
     43 C15        -7.2940    0.0330   -0.9830 c         1 MOL      0.423615
     44 O9         -8.3740   -0.5290   -0.7600 o         1 MOL     -0.595880
     45 H17        -5.3240    2.4130   -0.1930 hn        1 MOL      0.143717
     46 H18        -7.9680    2.0080   -0.6200 h1        1 MOL      0.099554
     47 H19        -6.9920    1.4350    0.6450 h1        1 MOL      0.099554
     48 N5         -6.2900   -0.5850   -1.6140 n         1 MOL     -0.142352
     49 C16        -6.3480   -1.9670   -2.1280 c3        1 MOL      0.022385
     50 C17        -6.5000   -3.0280   -1.0230 c         1 MOL      0.479789
     51 O10        -6.3350   -4.1810   -1.2240 o         1 MOL     -0.538085
     52 C18        -5.2060   -2.2480   -3.1040 c3        1 MOL     -0.209813
     53 C19        -3.7830   -2.0200   -2.6140 c         1 MOL      0.594130
     54 N6         -2.8260   -1.8170   -3.4960 n         1 MOL     -0.690062
     55 O11        -3.5060   -2.0050   -1.4350 o         1 MOL     -0.367629
     56 H20        -5.3740   -0.1510   -1.5580 hn        1 MOL      0.116153
     57 H21        -7.2960   -2.0190   -2.6590 h1        1 MOL      0.090999
     58 H22        -5.4250   -1.5950   -3.9450 hc        1 MOL      0.062712
     59 H23        -5.3040   -3.2890   -3.3910 hc        1 MOL      0.062712
     60 H24        -2.9960   -1.7030   -4.4850 hn        1 MOL      0.350517
     61 H25        -1.8520   -1.7780   -3.2370 hn        1 MOL      0.350517
     62 N7         -6.6130   -2.6800    0.2360 n         1 MOL     -0.269944
     63 C20        -6.6130   -3.6380    1.3770 c3        1 MOL     -0.338933
     64 C21        -5.1960   -4.2920    1.6930 c         1 MOL      0.511023
     65 O12        -5.1590   -5.1670    2.5320 o         1 MOL     -0.561363
     66 H26        -6.4390   -1.7040    0.4220 hn        1 MOL      0.253912
     67 H27        -7.3730   -4.3660    1.1310 h1        1 MOL      0.162271
     68 H28        -6.9590   -3.0480    2.2220 h1        1 MOL      0.162271
     69 N8         -4.1120   -3.9790    0.9740 n         1 MOL     -0.090483
     70 C22        -2.7660   -4.4910    1.0830 c3        1 MOL     -0.260696
     71 C23        -1.6570   -3.5000    1.1350 c         1 MOL      0.766289
     72 O13        -1.8490   -2.3680    0.7270 o         1 MOL     -0.683639
     73 C24        -2.4670   -5.5050   -0.0640 c3        1 MOL      0.678896
     74 C25        -3.3110   -6.7960    0.1540 c3        1 MOL     -0.587633
     75 O14        -2.5470   -4.9070   -1.3330 oh        1 MOL     -0.620634
     76 H29        -4.2970   -3.2570    0.2970 hn        1 MOL      0.061561
     77 H30        -2.6440   -4.9800    2.0500 h1        1 MOL      0.062426
     78 H31        -1.4270   -5.7810    0.0390 h1        1 MOL     -0.100390
     79 H32        -2.4270   -3.9540   -1.2410 ho        1 MOL      0.321784
     80 H33        -4.3780   -6.5720    0.0600 hc        1 MOL      0.144383
     81 H34        -3.0010   -7.5220   -0.5870 hc        1 MOL      0.144383
     82 H35        -3.1290   -7.0990    1.1820 hc        1 MOL      0.144383
     83 N9         -0.4920   -3.8290    1.7920 n         1 MOL     -0.523679
     84 C26         0.7120   -2.9640    1.8160 c3        1 MOL      0.182121
     85 C27         1.5110   -3.2250    0.5740 c         1 MOL      0.424452
     86 O15         1.5480   -4.3970    0.1580 o         1 MOL     -0.578606
     87 C28         1.5460   -3.0020    3.0990 c3        1 MOL      0.078670
     88 C29         0.8720   -2.4270    4.3030 c3        1 MOL     -0.069081
     89 C30         2.9570   -2.4090    3.2020 c3        1 MOL     -0.270858
     90 C31         0.9510   -3.3130    5.4900 c3        1 MOL     -0.222942
     91 H36        -0.3740   -4.7750    2.1110 hn        1 MOL      0.260920
     92 H37         0.3330   -1.9490    1.7420 h1        1 MOL     -0.030792
     93 H38         1.5740   -4.0760    3.2760 hc        1 MOL      0.011013
     94 H39        -0.1800   -2.3040    4.0020 hc        1 MOL      0.042129
     95 H40         1.3080   -1.4680    4.5660 hc        1 MOL      0.042129
     96 H41         2.9480   -1.4130    2.7690 hc        1 MOL      0.061949
     97 H42         3.3590   -2.4980    4.2060 hc        1 MOL      0.061949
     98 H43         3.5690   -3.0380    2.5540 hc        1 MOL      0.061949
     99 H44         0.3390   -2.8770    6.2810 hc        1 MOL      0.056112
    100 H45         0.6230   -4.3430    5.3030 hc        1 MOL      0.056112
    101 H46         2.0050   -3.3900    5.7440 hc        1 MOL      0.056112
    102 N10         2.0840   -2.1850    0.0180 n         1 MOL     -0.161747
    103 C32         2.8360   -2.1440   -1.2860 c3        1 MOL     -0.010625
    104 C33         4.2250   -1.6860   -0.9290 c         1 MOL      0.414964
    105 O16         4.4650   -1.3750    0.2460 o         1 MOL     -0.406079
    106 C34         2.0690   -1.2160   -2.3230 c3        1 MOL     -0.153915
    107 C35         0.5410   -1.3630   -2.2370 c         1 MOL      0.654218
    108 O17        -0.1120   -0.7020   -1.3440 o         1 MOL     -0.647163
    109 O18         0.0290   -2.0410   -3.1810 o         1 MOL     -0.647163
    110 H47         2.1180   -1.3420    0.5810 hn        1 MOL      0.268017
    111 H48         2.8890   -3.1610   -1.6680 h1        1 MOL      0.086980
    112 H49         2.3700   -1.4830   -3.3300 hc        1 MOL      0.047559
    113 H50         2.3570   -0.1860   -2.0780 hc        1 MOL      0.047559
    114 N11         5.2210   -1.7280   -1.8240 n         1 MOL     -0.614510
    115 C36         6.5910   -1.3750   -1.4650 c3        1 MOL      0.520964
    116 C37         6.7770    0.0580   -1.0070 c         1 MOL      0.159504
    117 O19         7.4170    0.2680    0.0600 o         1 MOL     -0.464282
    118 C38         7.5700   -1.7260   -2.6140 c3        1 MOL     -0.355972
    119 C39         9.0270   -1.6270   -2.2040 ca        1 MOL      0.170838
    120 C40         9.9200   -0.6080   -2.6120 ca        1 MOL     -0.232815
    121 C41         9.4240   -2.6560   -1.3710 ca        1 MOL     -0.232815
    122 C42        11.2410   -0.6660   -2.1560 ca        1 MOL     -0.014409
    123 C43        10.7200   -2.6610   -0.8440 ca        1 MOL     -0.014409
    124 C44        11.6320   -1.7080   -1.3330 ca        1 MOL     -0.212182
    125 H51         4.9450   -1.7480   -2.7990 hn        1 MOL      0.303262
    126 H52         6.8030   -2.0120   -0.6090 h1        1 MOL      0.042214
    127 H53         7.4930   -1.0590   -3.4680 hc        1 MOL      0.099945
    128 H54         7.2810   -2.7120   -2.9660 hc        1 MOL      0.099945
    129 H55         9.5450    0.0880   -3.3520 ha        1 MOL      0.128649
    130 H56         8.7230   -3.4700   -1.1970 ha        1 MOL      0.128649
    131 H57        11.9490    0.0940   -2.4480 ha        1 MOL      0.095189
    132 H58        10.9960   -3.4090   -0.1230 ha        1 MOL      0.095189
    133 H59        12.6550   -1.6790   -1.0010 ha        1 MOL      0.116864
    134 N12         6.3390    1.1410   -1.7050 n         1 MOL      0.025316
    135 C45         6.4110    2.5200   -1.3060 c3        1 MOL      0.057511
    136 C46         5.5930    2.7560    0.0590 c         1 MOL      0.168945
    137 O20         5.7860    3.8210    0.7310 o         1 MOL     -0.486460
    138 C47         5.8330    3.3950   -2.4110 c3        1 MOL     -0.207845
    139 C48         5.9350    2.4400   -3.5390 c3        1 MOL     -0.042993
    140 C49         5.5140    1.1470   -2.8620 c3        1 MOL     -0.182748
    141 H60         7.4700    2.7590   -1.2130 h1        1 MOL      0.098332
    142 H61         4.7810    3.6940   -2.3670 hc        1 MOL      0.112421
    143 H62         6.5150    4.2090   -2.6420 hc        1 MOL      0.112421
    144 H63         5.2820    2.7240   -4.3680 hc        1 MOL      0.040358
    145 H64         6.9620    2.2510   -3.8530 hc        1 MOL      0.040358
    146 H65         4.4920    1.3110   -2.5310 h1        1 MOL      0.086025
    147 H66         5.6810    0.2850   -3.5110 h1        1 MOL      0.086025
    148 N13         4.7590    1.8220    0.5070 n         1 MOL     -0.012062
    149 C50         3.9980    1.8870    1.7820 c3        1 MOL     -0.012200
    150 C51         4.5640    1.0790    2.9270 c         1 MOL      0.379474
    151 O21         4.3590    1.3330    4.1000 o         1 MOL     -0.529433
    152 C52         2.5350    1.5530    1.6450 c3        1 MOL      0.156296
    153 C53         1.7670    2.1450    0.4700 c3        1 MOL     -0.308710
    154 C54         0.3230    1.6390    0.4230 c         1 MOL      0.728602
    155 O22        -0.4850    2.1680   -0.3750 o         1 MOL     -0.770835
    156 O23        -0.1310    0.7570    1.2310 o         1 MOL     -0.770835
    157 H67         4.5960    0.9820   -0.0350 hn        1 MOL      0.129299
    158 H68         3.9190    2.9210    2.1200 h1        1 MOL      0.092689
    159 H69         1.9480    1.8460    2.5180 hc        1 MOL     -0.008094
    160 H70         2.3780    0.4710    1.5660 hc        1 MOL     -0.008094
    161 H71         2.3180    1.8710   -0.4260 hc        1 MOL      0.108314
    162 H72         1.6690    3.2280    0.5710 hc        1 MOL      0.108314
    163 N14         5.4380    0.0990    2.5550 n         1 MOL      0.011033
    164 C55         6.3160   -0.6880    3.4460 c3        1 MOL     -0.267013
    165 H73         7.1920   -0.0960    3.7070 h1        1 MOL      0.096088
    166 H74         5.7720   -0.9510    4.3530 h1        1 MOL      0.096088
    167 H75         6.6320   -1.5980    2.9340 h1        1 MOL      0.096088
    168 H76         5.6310   -0.0230    1.5710 hn        1 MOL      0.015169
    169 Ca1        -2.1820    0.1770   -0.2320 Ca        1 MOL      1.549952
    170 O24        -2.1160   -0.3550    2.5250 oh        1 MOL     -0.753021
    171 H77        -1.2130   -0.0790    2.3420 ho        1 MOL      0.385192
    172 H78        -2.1720   -0.3700    3.4810 ho        1 MOL      0.385192
    173 O25        -4.3570   -0.7990    1.3530 oh        1 MOL     -0.753021
    174 H79        -3.5870   -0.7980    1.9180 ho        1 MOL      0.385192
    175 H80        -5.0590   -0.4480    1.9060 ho        1 MOL      0.385192
@<TRIPOS>BOND
     1    1    2 1   
     2    1    4 1   
     3    1    5 1   
     4    1    6 1   
     5    2    3 2   
     6    2    7 1   
     7    7    8 1   
     8    7   15 1   
     9    8    9 1   
    10    8   11 1   
    11    8   16 1   
    12    9   10 2   
    13    9   19 1   
    14   11   12 1   
    15   11   17 1   
    16   11   18 1   
    17   12   13 1   
    18   12   14 1   
    19   19   20 1   
    20   19   24 1   
    21   20   21 1   
    22   20   23 1   
    23   20   25 1   
    24   21   22 2   
    25   21   29 1   
    26   23   26 1   
    27   23   27 1   
    28   23   28 1   
    29   29   30 1   
    30   29   37 1   
    31   30   31 1   
    32   30   33 1   
    33   30   38 1   
    34   31   32 2   
    35   31   41 1   
    36   33   34 1   
    37   33   39 1   
    38   33   40 1   
    39   34   35 1   
    40   34   36 1   
    41   41   42 1   
    42   41   45 1   
    43   42   43 1   
    44   42   46 1   
    45   42   47 1   
    46   43   44 2   
    47   43   48 1   
    48   48   49 1   
    49   48   56 1   
    50   49   50 1   
    51   49   52 1   
    52   49   57 1   
    53   50   51 2   
    54   50   62 1   
    55   52   53 1   
    56   52   58 1   
    57   52   59 1   
    58   53   54 1   
    59   53   55 2   
    60   54   60 1   
    61   54   61 1   
    62   62   63 1   
    63   62   66 1   
    64   63   64 1   
    65   63   67 1   
    66   63   68 1   
    67   64   65 2   
    68   64   69 1   
    69   69   70 1   
    70   69   76 1   
    71   70   71 1   
    72   70   73 1   
    73   70   77 1   
    74   71   72 2   
    75   71   83 1   
    76   73   74 1   
    77   73   75 1   
    78   73   78 1   
    79   74   80 1   
    80   74   81 1   
    81   74   82 1   
    82   75   79 1   
    83   83   84 1   
    84   83   91 1   
    85   84   85 1   
    86   84   87 1   
    87   84   92 1   
    88   85   86 2   
    89   85  102 1   
    90   87   88 1   
    91   87   89 1   
    92   87   93 1   
    93   88   90 1   
    94   88   94 1   
    95   88   95 1   
    96   89   96 1   
    97   89   97 1   
    98   89   98 1   
    99   90   99 1   
   100   90  100 1   
   101   90  101 1   
   102  102  103 1   
   103  102  110 1   
   104  103  104 1   
   105  103  106 1   
   106  103  111 1   
   107  104  105 2   
   108  104  114 1   
   109  106  107 1   
   110  106  112 1   
   111  106  113 1   
   112  107  108 1   
   113  107  109 1   
   114  114  115 1   
   115  114  125 1   
   116  115  116 1   
   117  115  118 1   
   118  115  126 1   
   119  116  117 2   
   120  116  134 1   
   121  118  119 1   
   122  118  127 1   
   123  118  128 1   
   124  119  120 ar  
   125  119  121 ar  
   126  120  122 ar  
   127  120  129 1   
   128  121  123 ar  
   129  121  130 1   
   130  122  124 ar  
   131  122  131 1   
   132  123  124 ar  
   133  123  132 1   
   134  124  133 1   
   135  134  135 1   
   136  134  140 1   
   137  135  136 1   
   138  135  138 1   
   139  135  141 1   
   140  136  137 2   
   141  136  148 1   
   142  138  139 1   
   143  138  142 1   
   144  138  143 1   
   145  139  140 1   
   146  139  144 1   
   147  139  145 1   
   148  140  146 1   
   149  140  147 1   
   150  148  149 1   
   151  148  157 1   
   152  149  150 1   
   153  149  152 1   
   154  149  158 1   
   155  150  151 2   
   156  150  163 1   
   157  152  153 1   
   158  152  159 1   
   159  152  160 1   
   160  153  154 1   
   161  153  161 1   
   162  153  162 1   
   163  154  155 1   
   164  154  156 1   
   165  163  164 1   
   166  163  168 1   
   167  164  165 1   
   168  164  166 1   
   169  164  167 1   
   170  170  171 1   
   171  170  172 1   
   172  173  174 1   
   173  173  175 1   
@<TRIPOS>SUBSTRUCTURE
     1 MOL         1 TEMP              0 ****  ****    0 ROOT
