@<TRIPOS>MOLECULE
MOL
  189   185     1     0     0
SMALL
resp


@<TRIPOS>ATOM
      1 C1          0.6960    1.7000    5.4920 c3        1 MOL     -0.480304
      2 C2          0.0640    1.6640    4.0880 c         1 MOL      0.644218
      3 O1          0.7800    1.8710    3.1090 o         1 MOL     -0.485171
      4 H1         -0.0920    1.6840    6.2440 hc        1 MOL      0.127326
      5 H2          1.3400    0.8320    5.6230 hc        1 MOL      0.127326
      6 H3          1.2840    2.6110    5.6020 hc        1 MOL      0.127326
      7 N1         -1.2730    1.5160    3.9440 n         1 MOL     -0.567038
      8 C3         -1.9930    1.5280    2.7270 c3        1 MOL      0.355930
      9 C4         -2.2250    2.9070    2.0580 c         1 MOL      0.250747
     10 O2         -3.3250    3.4640    2.0390 o         1 MOL     -0.441177
     11 C5         -3.2300    0.6750    2.8930 c3        1 MOL     -0.216828
     12 C6         -3.9840    0.4020    1.5530 c         1 MOL      0.606663
     13 O3         -5.2260    0.1440    1.6640 o         1 MOL     -0.621209
     14 O4         -3.3810    0.3980    0.4250 o         1 MOL     -0.621209
     15 H4         -1.7970    1.3400    4.7880 hn        1 MOL      0.307823
     16 H5         -1.3410    1.1160    1.9610 h1        1 MOL     -0.053598
     17 H6         -3.8740    1.0650    3.6870 hc        1 MOL      0.062612
     18 H7         -2.8380   -0.3050    3.1660 hc        1 MOL      0.062612
     19 N2         -1.1900    3.4200    1.4220 n         1 MOL     -0.078216
     20 C7         -1.1070    4.8650    1.0240 c3        1 MOL     -0.133050
     21 C8         -2.1260    5.3050    0.0060 c         1 MOL      0.596949
     22 O5         -2.4670    6.4280   -0.0450 o         1 MOL     -0.590900
     23 C9          0.3570    5.2150    0.5330 c3        1 MOL     -0.144181
     24 C10         1.4680    4.8880    1.5290 c3        1 MOL      0.157928
     25 C11         1.4630    5.7870    2.7630 c3        1 MOL     -0.346860
     26 C12         2.6330    5.4350    3.7520 c3        1 MOL      0.212265
     27 N3          2.5390    6.1720    5.0100 n4        1 MOL     -0.384647
     28 H8         -0.3700    2.8370    1.3140 hn        1 MOL      0.090582
     29 H9         -1.4340    5.4910    1.8470 h1        1 MOL      0.092901
     30 H10         0.4630    6.2420    0.1880 hc        1 MOL      0.066648
     31 H11         0.4570    4.6270   -0.3820 hc        1 MOL      0.066648
     32 H12         2.3560    5.1610    0.9550 hc        1 MOL      0.024940
     33 H13         1.5170    3.8540    1.8730 hc        1 MOL      0.024940
     34 H14         0.5510    5.5760    3.3230 hc        1 MOL      0.097236
     35 H15         1.5270    6.8020    2.3740 hc        1 MOL      0.097236
     36 H16         3.6080    5.7020    3.3600 hx        1 MOL      0.046504
     37 H17         2.5810    4.3490    3.8740 hx        1 MOL      0.046504
     38 H18         1.7150    5.8250    5.4810 hn        1 MOL      0.327293
     39 H19         3.3790    6.1530    5.5700 hn        1 MOL      0.327293
     40 H20         2.3930    7.1480    4.8140 hn        1 MOL      0.327293
     41 N4         -2.6510    4.3540   -0.7860 n         1 MOL     -0.346199
     42 C13        -3.5590    4.5550   -1.9070 c3        1 MOL      0.178915
     43 C14        -4.9290    3.8790   -1.5510 c         1 MOL      0.266016
     44 O6         -5.8810    3.8960   -2.3580 o         1 MOL     -0.509443
     45 C15        -2.9230    4.0960   -3.2340 c3        1 MOL     -0.397189
     46 C16        -2.4890    2.6450   -3.2020 c         1 MOL      0.905895
     47 O7         -2.5980    1.8860   -2.2250 o         1 MOL     -0.729413
     48 O8         -1.9830    2.1170   -4.2200 o         1 MOL     -0.729413
     49 H21        -2.3030    3.4170   -0.6270 hn        1 MOL      0.273688
     50 H22        -3.7600    5.6080   -2.1100 h1        1 MOL      0.079129
     51 H23        -2.0050    4.6430   -3.4650 hc        1 MOL      0.094475
     52 H24        -3.7130    4.2740   -3.9640 hc        1 MOL      0.094475
     53 N5         -5.0040    3.2200   -0.3910 n         1 MOL     -0.000148
     54 C17        -6.2270    2.6200    0.1730 c3        1 MOL     -0.074382
     55 C18        -6.9420    1.5380   -0.5840 c         1 MOL      0.489073
     56 O9         -8.2230    1.4840   -0.6030 o         1 MOL     -0.580012
     57 H25        -4.1450    3.1710    0.1490 hn        1 MOL     -0.024000
     58 H26        -6.9180    3.4180    0.4250 h1        1 MOL      0.070794
     59 H27        -5.8880    2.1500    1.1020 h1        1 MOL      0.070794
     60 N6         -6.2030    0.7020   -1.3480 n         1 MOL     -0.156566
     61 C19        -6.7990   -0.4450   -2.1010 c3        1 MOL     -0.226591
     62 C20        -7.2010   -1.6860   -1.1810 c         1 MOL      0.427166
     63 O10        -7.6770   -2.7250   -1.6480 o         1 MOL     -0.525977
     64 C21        -5.8720   -0.8480   -3.3680 c3        1 MOL     -0.143393
     65 C22        -4.4590   -1.2180   -2.8650 c         1 MOL      0.760809
     66 O11        -4.1580   -1.6470   -1.7310 o         1 MOL     -0.737564
     67 O12        -3.5360   -1.1020   -3.6710 o         1 MOL     -0.737564
     68 H28        -5.2420    0.5960   -1.0580 hn        1 MOL      0.115669
     69 H29        -7.6960   -0.0410   -2.5670 h1        1 MOL      0.165345
     70 H30        -5.7930    0.0380   -3.9990 hc        1 MOL      0.081005
     71 H31        -6.2650   -1.6570   -3.9930 hc        1 MOL      0.081005
     72 N7         -6.9360   -1.5640    0.1080 n         1 MOL     -0.118667
     73 C23        -7.1270   -2.5260    1.1860 c3        1 MOL     -0.262459
     74 C24        -5.9440   -3.5020    1.2310 c         1 MOL      0.597473
     75 O13        -6.2040   -4.7050    1.5400 o         1 MOL     -0.581240
     76 H32        -6.3320   -0.7960    0.3720 hn        1 MOL      0.189528
     77 H33        -8.0140   -3.0760    0.8730 h1        1 MOL      0.120565
     78 H34        -7.2900   -2.0700    2.1700 h1        1 MOL      0.120565
     79 N8         -4.7350   -3.1480    0.8370 n         1 MOL     -0.414922
     80 C25        -3.7030   -4.1910    0.6460 c3        1 MOL     -0.263918
     81 C26        -2.3000   -3.5210    0.8990 c         1 MOL      0.868693
     82 O14        -2.1550   -2.4070    0.4580 o         1 MOL     -0.717103
     83 C27        -3.6290   -4.9630   -0.7610 c3        1 MOL      0.645171
     84 C28        -4.1970   -6.4210   -0.6870 c3        1 MOL     -0.657661
     85 O15        -4.3320   -4.3130   -1.7910 oh        1 MOL     -0.699368
     86 H35        -4.6670   -2.2060    0.4720 hn        1 MOL      0.346313
     87 H36        -3.8700   -4.9850    1.3740 h1        1 MOL      0.110931
     88 H37        -2.5810   -5.1420   -0.9960 h1        1 MOL     -0.058703
     89 H38        -4.3350   -3.3570   -1.6770 ho        1 MOL      0.482731
     90 H39        -5.2760   -6.2910   -0.7470 hc        1 MOL      0.162614
     91 H40        -3.9550   -6.9920   -1.5900 hc        1 MOL      0.162614
     92 H41        -4.0160   -6.9580    0.2420 hc        1 MOL      0.162614
     93 N9         -1.2630   -4.0810    1.5710 n         1 MOL     -0.850943
     94 C29         0.0560   -3.4790    1.7630 c3        1 MOL      0.375418
     95 C30         1.1330   -3.9810    0.8420 c         1 MOL      0.427861
     96 O16         1.4250   -5.2000    0.8890 o         1 MOL     -0.573748
     97 C31         0.4660   -3.3880    3.2450 c3        1 MOL      0.226344
     98 C32        -0.6480   -2.7160    4.1220 c3        1 MOL      0.072067
     99 C33         1.8240   -2.7620    3.4010 c3        1 MOL     -0.375651
    100 C34        -0.6230   -3.1780    5.5800 c3        1 MOL     -0.174637
    101 H42        -1.4390   -4.9450    2.0610 hn        1 MOL      0.332964
    102 H43        -0.0030   -2.4300    1.4780 h1        1 MOL      0.024648
    103 H44         0.5120   -4.4310    3.5950 hc        1 MOL     -0.047573
    104 H45        -1.6310   -2.8850    3.6930 hc        1 MOL     -0.007973
    105 H46        -0.6310   -1.6190    4.0580 hc        1 MOL     -0.007973
    106 H47         2.1930   -2.7300    4.4240 hc        1 MOL      0.067005
    107 H48         2.5860   -3.3460    2.8790 hc        1 MOL      0.067005
    108 H49         1.8290   -1.7870    2.9320 hc        1 MOL      0.067005
    109 H50        -1.3650   -2.6220    6.1470 hc        1 MOL      0.037106
    110 H51        -0.9390   -4.2030    5.7860 hc        1 MOL      0.037106
    111 H52         0.3420   -3.0160    6.0660 hc        1 MOL      0.037106
    112 N10         1.7920   -3.0930    0.0560 n         1 MOL     -0.026278
    113 C35         2.9880   -3.4520   -0.7630 c3        1 MOL     -0.068160
    114 C36         4.3940   -3.2110   -0.0700 c         1 MOL      0.236573
    115 O17         4.3980   -2.5830    0.9510 o         1 MOL     -0.285505
    116 C37         3.0360   -2.7440   -2.1570 c3        1 MOL      0.250789
    117 C38         1.8430   -2.9380   -3.0470 c3        1 MOL     -0.441978
    118 O18         3.2280   -1.3470   -1.9530 oh        1 MOL     -0.540226
    119 H53         1.4480   -2.1450    0.0370 hn        1 MOL      0.075904
    120 H54         2.9310   -4.5180   -1.0100 h1        1 MOL      0.058908
    121 H55         3.8390   -3.1090   -2.7980 h1        1 MOL      0.052566
    122 H56         2.3880   -0.9440   -1.7100 ho        1 MOL      0.409922
    123 H57         0.9960   -2.4070   -2.6020 hc        1 MOL      0.127613
    124 H58         2.0040   -2.5000   -4.0370 hc        1 MOL      0.127613
    125 H59         1.5990   -3.9970   -2.9760 hc        1 MOL      0.127613
    126 N11         5.5120   -3.5980   -0.7020 n         1 MOL     -0.143449
    127 C39         6.8850   -3.2430   -0.3600 c3        1 MOL     -0.218397
    128 C40         7.2320   -1.7070   -0.3770 c         1 MOL      0.488958
    129 O19         7.7150   -1.2280    0.6410 o         1 MOL     -0.485355
    130 C41         7.8880   -3.9310   -1.2890 c3        1 MOL      0.323912
    131 C42         7.9880   -5.4740   -0.9620 c3        1 MOL     -0.295150
    132 O20         7.5300   -3.7280   -2.7210 oh        1 MOL     -0.677610
    133 H60         5.4090   -4.3130   -1.4030 hn        1 MOL      0.244634
    134 H61         7.0570   -3.4010    0.6990 h1        1 MOL      0.140479
    135 H62         8.8550   -3.4730   -1.0960 h1        1 MOL      0.038790
    136 H63         8.2570   -3.9080   -3.3260 ho        1 MOL      0.425259
    137 H64         8.2940   -5.4910    0.0850 hc        1 MOL      0.086177
    138 H65         7.0100   -5.9420   -1.0570 hc        1 MOL      0.086177
    139 H66         8.7990   -5.8380   -1.5970 hc        1 MOL      0.086177
    140 N12         6.7730   -0.9010   -1.3510 n         1 MOL     -0.412193
    141 C43         6.9150    0.5660   -1.3400 c3        1 MOL     -0.040377
    142 C44         6.2890    1.2420   -0.0930 c         1 MOL      0.311860
    143 O21         6.8510    2.1040    0.5370 o         1 MOL     -0.482439
    144 C45         6.4240    1.0070   -2.7050 c3        1 MOL     -0.169806
    145 C46         6.5180    2.5890   -2.8950 c3        1 MOL     -0.025395
    146 C47         6.3550    2.9590   -4.3420 c3        1 MOL      0.037058
    147 C48         6.7100    4.3660   -4.5430 c3        1 MOL      0.043737
    148 N13         6.6680    4.6540   -6.0330 n4        1 MOL     -0.368243
    149 H67         6.3390   -1.3450   -2.1450 hn        1 MOL      0.273251
    150 H68         7.9670    0.8400   -1.2590 h1        1 MOL      0.112554
    151 H69         5.4200    0.5930   -2.7270 hc        1 MOL      0.081763
    152 H70         6.9390    0.4640   -3.5040 hc        1 MOL      0.081763
    153 H71         7.5560    2.8260   -2.6610 hc        1 MOL      0.038646
    154 H72         5.8460    3.2140   -2.3140 hc        1 MOL      0.038646
    155 H73         5.3190    2.7470   -4.6140 hc        1 MOL      0.019788
    156 H74         6.8610    2.3290   -5.0670 hc        1 MOL      0.019788
    157 H75         7.7380    4.5370   -4.2050 hx        1 MOL      0.084566
    158 H76         6.0870    5.0040   -3.9130 hx        1 MOL      0.084566
    159 H77         5.7190    4.6440   -6.3840 hn        1 MOL      0.311334
    160 H78         7.2140    5.4650   -6.2720 hn        1 MOL      0.311334
    161 H79         7.1950    3.9600   -6.5310 hn        1 MOL      0.311334
    162 N14         5.1280    0.6670    0.2900 n         1 MOL      0.248587
    163 C49         4.2230    1.1920    1.3300 c3        1 MOL     -0.063944
    164 C50         4.7870    0.7860    2.6940 c         1 MOL      0.390788
    165 O22         5.0110    1.6940    3.5190 o         1 MOL     -0.552785
    166 C51         2.8550    0.6380    0.9480 c3        1 MOL     -0.052300
    167 C52         2.1250    1.3360   -0.2010 c3        1 MOL     -0.002646
    168 C53         0.7110    0.7000   -0.2830 c         1 MOL      0.846383
    169 O23         0.5270   -0.5450   -0.2770 o         1 MOL     -0.770326
    170 O24        -0.2680    1.4040   -0.6110 o         1 MOL     -0.770326
    171 H80         4.6810   -0.0190   -0.2870 hn        1 MOL     -0.085853
    172 H81         4.1990    2.2780    1.3030 h1        1 MOL      0.013038
    173 H82         2.1120    0.5850    1.7420 hc        1 MOL      0.006625
    174 H83         3.0100   -0.3990    0.6520 hc        1 MOL      0.006625
    175 H84         2.6700    1.1310   -1.1100 hc        1 MOL     -0.022165
    176 H85         2.0750    2.4170   -0.0310 hc        1 MOL     -0.022165
    177 N15         5.2700   -0.4840    2.9290 n         1 MOL     -0.040818
    178 C54         6.0620   -0.9880    4.0490 c3        1 MOL     -0.329102
    179 H86         6.4250   -1.9890    3.8160 h1        1 MOL      0.124986
    180 H87         6.9100   -0.3250    4.2220 h1        1 MOL      0.124986
    181 H88         5.4430   -1.0250    4.9460 h1        1 MOL      0.124986
    182 H89         5.1160   -1.0470    2.1060 hn        1 MOL      0.077617
    183 Ca1        -1.8760   -0.4930   -1.3560 Ca        1 MOL      1.806363
    184 O25        -0.0990    0.5080   -3.3580 oh        1 MOL     -0.956875
    185 H90         0.5320    0.5420   -4.0710 ho        1 MOL      0.427261
    186 H91        -0.8420    1.0090   -3.6770 ho        1 MOL      0.427261
    187 O26        -1.5790   -2.9260   -2.5580 oh        1 MOL     -0.956875
    188 H92        -2.3490   -2.5860   -3.0130 ho        1 MOL      0.427261
    189 H93        -1.2840   -3.6600   -3.0960 ho        1 MOL      0.427261
@<TRIPOS>BOND
     1    1    2 1   
     2    1    4 1   
     3    1    5 1   
     4    1    6 1   
     5    2    3 2   
     6    2    7 1   
     7    7    8 1   
     8    7   15 1   
     9    8    9 1   
    10    8   11 1   
    11    8   16 1   
    12    9   10 2   
    13    9   19 1   
    14   11   12 1   
    15   11   17 1   
    16   11   18 1   
    17   12   13 1   
    18   12   14 1   
    19   19   20 1   
    20   19   28 1   
    21   20   21 1   
    22   20   23 1   
    23   20   29 1   
    24   21   22 2   
    25   21   41 1   
    26   23   24 1   
    27   23   30 1   
    28   23   31 1   
    29   24   25 1   
    30   24   32 1   
    31   24   33 1   
    32   25   26 1   
    33   25   34 1   
    34   25   35 1   
    35   26   27 1   
    36   26   36 1   
    37   26   37 1   
    38   27   38 1   
    39   27   39 1   
    40   27   40 1   
    41   41   42 1   
    42   41   49 1   
    43   42   43 1   
    44   42   45 1   
    45   42   50 1   
    46   43   44 2   
    47   43   53 1   
    48   45   46 1   
    49   45   51 1   
    50   45   52 1   
    51   46   47 1   
    52   46   48 1   
    53   53   54 1   
    54   53   57 1   
    55   54   55 1   
    56   54   58 1   
    57   54   59 1   
    58   55   56 2   
    59   55   60 1   
    60   60   61 1   
    61   60   68 1   
    62   61   62 1   
    63   61   64 1   
    64   61   69 1   
    65   62   63 2   
    66   62   72 1   
    67   64   65 1   
    68   64   70 1   
    69   64   71 1   
    70   65   66 1   
    71   65   67 1   
    72   72   73 1   
    73   72   76 1   
    74   73   74 1   
    75   73   77 1   
    76   73   78 1   
    77   74   75 2   
    78   74   79 1   
    79   79   80 1   
    80   79   86 1   
    81   80   81 1   
    82   80   83 1   
    83   80   87 1   
    84   81   82 2   
    85   81   93 1   
    86   83   84 1   
    87   83   85 1   
    88   83   88 1   
    89   84   90 1   
    90   84   91 1   
    91   84   92 1   
    92   85   89 1   
    93   93   94 1   
    94   93  101 1   
    95   94   95 1   
    96   94   97 1   
    97   94  102 1   
    98   95   96 2   
    99   95  112 1   
   100   97   98 1   
   101   97   99 1   
   102   97  103 1   
   103   98  100 1   
   104   98  104 1   
   105   98  105 1   
   106   99  106 1   
   107   99  107 1   
   108   99  108 1   
   109  100  109 1   
   110  100  110 1   
   111  100  111 1   
   112  112  113 1   
   113  112  119 1   
   114  113  114 1   
   115  113  116 1   
   116  113  120 1   
   117  114  115 2   
   118  114  126 1   
   119  116  117 1   
   120  116  118 1   
   121  116  121 1   
   122  117  123 1   
   123  117  124 1   
   124  117  125 1   
   125  118  122 1   
   126  126  127 1   
   127  126  133 1   
   128  127  128 1   
   129  127  130 1   
   130  127  134 1   
   131  128  129 2   
   132  128  140 1   
   133  130  131 1   
   134  130  132 1   
   135  130  135 1   
   136  131  137 1   
   137  131  138 1   
   138  131  139 1   
   139  132  136 1   
   140  140  141 1   
   141  140  149 1   
   142  141  142 1   
   143  141  144 1   
   144  141  150 1   
   145  142  143 2   
   146  142  162 1   
   147  144  145 1   
   148  144  151 1   
   149  144  152 1   
   150  145  146 1   
   151  145  153 1   
   152  145  154 1   
   153  146  147 1   
   154  146  155 1   
   155  146  156 1   
   156  147  148 1   
   157  147  157 1   
   158  147  158 1   
   159  148  159 1   
   160  148  160 1   
   161  148  161 1   
   162  162  163 1   
   163  162  171 1   
   164  163  164 1   
   165  163  166 1   
   166  163  172 1   
   167  164  165 2   
   168  164  177 1   
   169  166  167 1   
   170  166  173 1   
   171  166  174 1   
   172  167  168 1   
   173  167  175 1   
   174  167  176 1   
   175  168  169 1   
   176  168  170 1   
   177  177  178 1   
   178  177  182 1   
   179  178  179 1   
   180  178  180 1   
   181  178  181 1   
   182  184  185 1   
   183  184  186 1   
   184  187  188 1   
   185  187  189 1   
@<TRIPOS>SUBSTRUCTURE
     1 MOL         1 TEMP              0 ****  ****    0 ROOT
