@<TRIPOS>MOLECULE
MOL
  179   176     1     0     0
SMALL
resp


@<TRIPOS>ATOM
      1 C1         -2.2050   -2.6460    4.8180 c3        1 MOL     -0.411685
      2 C2         -1.3740   -2.4580    3.5580 c         1 MOL      0.652696
      3 O1         -2.0110   -2.3460    2.4780 o         1 MOL     -0.526195
      4 H1         -1.8480   -3.5200    5.3610 hc        1 MOL      0.107679
      5 H2         -2.1120   -1.7630    5.4510 hc        1 MOL      0.107679
      6 H3         -3.2500   -2.7900    4.5460 hc        1 MOL      0.107679
      7 N1         -0.0340   -2.3800    3.6440 n         1 MOL     -0.593190
      8 C3          0.7870   -2.3770    2.4240 c3        1 MOL      0.411465
      9 C4          0.8330   -3.7300    1.6410 c         1 MOL      0.111473
     10 O2          1.7730   -4.6010    1.8260 o         1 MOL     -0.456052
     11 C5          2.1370   -2.0120    2.9190 c3        1 MOL     -0.320981
     12 C6          2.9450   -1.5460    1.7090 c         1 MOL      0.773637
     13 O3          2.4460   -1.4520    0.5540 o         1 MOL     -0.674493
     14 O4          4.1320   -1.3330    1.9050 o         1 MOL     -0.674493
     15 H4          0.4800   -2.4610    4.5030 hn        1 MOL      0.321158
     16 H5          0.4240   -1.6080    1.7470 h1        1 MOL     -0.053720
     17 H6          2.6540   -2.8760    3.3200 hc        1 MOL      0.079412
     18 H7          2.0500   -1.1980    3.6320 hc        1 MOL      0.079412
     19 N2         -0.1470   -3.8320    0.7560 n         1 MOL     -0.058779
     20 C7         -0.2980   -5.1690    0.1020 c3        1 MOL     -0.043631
     21 C8          0.8820   -5.6060   -0.7630 c         1 MOL      0.411970
     22 O5          1.1510   -6.8000   -0.8570 o         1 MOL     -0.542180
     23 C9         -1.6120   -5.5310   -0.5420 c3        1 MOL     -0.262416
     24 C10        -2.6820   -6.1940    0.3690 c3        1 MOL      0.139664
     25 C11        -3.2950   -5.1750    1.2920 c3        1 MOL     -0.100156
     26 C12        -4.3650   -5.8370    2.2030 c3        1 MOL     -0.052367
     27 N3         -3.8250   -6.8490    3.1650 n4        1 MOL     -0.348721
     28 H8         -0.8220   -3.1080    0.5360 hn        1 MOL      0.272591
     29 H9         -0.1780   -5.8570    0.9400 h1        1 MOL      0.066005
     30 H10        -1.5320   -6.2630   -1.3440 hc        1 MOL      0.103442
     31 H11        -2.0770   -4.6710   -1.0330 hc        1 MOL      0.103442
     32 H12        -2.2870   -7.0240    0.9470 hc        1 MOL     -0.006340
     33 H13        -3.4490   -6.6920   -0.2190 hc        1 MOL     -0.006340
     34 H14        -3.7620   -4.3670    0.7240 hc        1 MOL      0.073337
     35 H15        -2.5450   -4.7080    1.9210 hc        1 MOL      0.073337
     36 H16        -5.1440   -6.3000    1.5900 hx        1 MOL      0.105233
     37 H17        -4.8370   -4.9940    2.7180 hx        1 MOL      0.105233
     38 H18        -3.5130   -7.6600    2.6550 hn        1 MOL      0.324600
     39 H19        -3.1170   -6.4680    3.7860 hn        1 MOL      0.324600
     40 H20        -4.5910   -7.1840    3.7290 hn        1 MOL      0.324600
     41 N4          1.4790   -4.6360   -1.4410 n         1 MOL     -0.207883
     42 C13         2.6020   -4.9330   -2.3960 c3        1 MOL      0.015945
     43 C14         3.9830   -4.7760   -1.7330 c         1 MOL      0.394171
     44 O6          5.0010   -4.9520   -2.4300 o         1 MOL     -0.537890
     45 C15         2.5090   -4.1060   -3.6360 c3        1 MOL     -0.058214
     46 C16         2.5060   -2.5860   -3.4770 c         1 MOL      0.809099
     47 O7          2.4610   -1.9260   -4.5470 o         1 MOL     -0.746323
     48 O8          2.3730   -2.0500   -2.3700 o         1 MOL     -0.746323
     49 H21         1.2710   -3.6820   -1.2200 hn        1 MOL      0.129637
     50 H22         2.4810   -5.9690   -2.7140 h1        1 MOL      0.104994
     51 H23         1.5400   -4.3320   -4.0750 hc        1 MOL      0.015500
     52 H24         3.3040   -4.3960   -4.3280 hc        1 MOL      0.015500
     53 N5          4.0430   -4.4110   -0.4820 n         1 MOL     -0.192432
     54 C17         5.2290   -4.1240    0.3710 c3        1 MOL     -0.063019
     55 C18         6.0840   -2.9590   -0.1430 c         1 MOL      0.510964
     56 O9          7.2430   -2.9340    0.1450 o         1 MOL     -0.552570
     57 H25         3.1820   -4.2770    0.0170 hn        1 MOL      0.169704
     58 H26         5.9180   -4.9460    0.5680 h1        1 MOL      0.087209
     59 H27         4.8460   -3.8890    1.3590 h1        1 MOL      0.087209
     60 N6          5.5750   -2.0090   -0.9880 n         1 MOL     -0.197502
     61 C19         6.3400   -0.8950   -1.5550 c3        1 MOL     -0.083252
     62 C20         6.6860    0.2740   -0.5760 c         1 MOL      0.309227
     63 O10         7.5270    1.0770   -0.9250 o         1 MOL     -0.520089
     64 C21         5.5130   -0.4240   -2.7960 c3        1 MOL     -0.195131
     65 C22         4.6320    0.8040   -2.4610 c         1 MOL      0.615354
     66 N7          4.9520    1.9980   -2.8800 n         1 MOL     -0.746748
     67 O11         3.6460    0.6430   -1.7040 o         1 MOL     -0.680857
     68 H28         4.5880   -2.0940   -1.1950 hn        1 MOL      0.137520
     69 H29         7.2840   -1.3250   -1.8920 h1        1 MOL      0.146416
     70 H30         4.9320   -1.2410   -3.2120 hc        1 MOL      0.104466
     71 H31         6.1760   -0.1330   -3.6010 hc        1 MOL      0.104466
     72 H32         5.8560    2.2440   -3.2590 hn        1 MOL      0.384182
     73 H33         4.2750    2.7230   -2.6850 hn        1 MOL      0.384182
     74 N8          6.1150    0.3960    0.6070 n         1 MOL      0.120473
     75 C23         6.4110    1.3310    1.7750 c3        1 MOL     -0.496997
     76 C24         5.3490    2.3850    1.9600 c         1 MOL      0.784067
     77 O12         5.6680    3.3430    2.6840 o         1 MOL     -0.561139
     78 H34         5.4230   -0.2770    0.9250 hn        1 MOL      0.124830
     79 H35         7.3540    1.8180    1.5400 h1        1 MOL      0.177566
     80 H36         6.4240    0.7850    2.7180 h1        1 MOL      0.177566
     81 N9          4.1410    2.1830    1.4490 n         1 MOL     -0.642349
     82 C25         2.9930    3.1120    1.5310 c3        1 MOL      0.418110
     83 C26         1.6300    2.4050    1.5000 c         1 MOL      0.331545
     84 O13         1.5270    1.2710    1.0320 o         1 MOL     -0.530680
     85 C27         2.9820    4.0760    0.3490 c3        1 MOL      0.113805
     86 C28         3.9890    5.2480    0.4420 ca        1 MOL     -0.003763
     87 C29         5.3260    5.0230    0.0690 ca        1 MOL     -0.197114
     88 C30         3.5690    6.4880    0.7880 ca        1 MOL     -0.197114
     89 C31         6.3190    6.0600    0.0570 ca        1 MOL     -0.164885
     90 C32         4.4570    7.5500    0.6600 ca        1 MOL     -0.164885
     91 C33         5.8190    7.3200    0.3360 ca        1 MOL      0.247300
     92 O14         6.7290    8.3950    0.2870 oh        1 MOL     -0.449451
     93 H37         4.0090    1.2930    0.9860 hn        1 MOL      0.276970
     94 H38         3.0630    3.7000    2.4420 h1        1 MOL     -0.025968
     95 H39         1.9870    4.4820    0.1840 hc        1 MOL     -0.047947
     96 H40         3.2120    3.5510   -0.5810 hc        1 MOL     -0.047947
     97 H41         5.6360    4.1400   -0.4670 ha        1 MOL      0.121218
     98 H42         2.5460    6.5890    1.1250 ha        1 MOL      0.121218
     99 H43         7.3230    5.7740   -0.2000 ha        1 MOL      0.141016
    100 H44         4.1000    8.5600    0.7600 ha        1 MOL      0.141016
    101 H45         6.2740    9.2380    0.2020 ho        1 MOL      0.316965
    102 N10         0.5210    3.0410    1.9450 n         1 MOL     -0.340223
    103 C34        -0.8800    2.6460    1.8040 c3        1 MOL     -0.093215
    104 C35        -1.6960    3.5380    0.8320 c         1 MOL      0.383668
    105 O15        -1.8970    4.7540    1.1960 o         1 MOL     -0.549138
    106 C36        -1.5810    2.5590    3.1850 c3        1 MOL      0.472916
    107 C37        -0.7510    1.8360    4.2850 c3        1 MOL      0.006291
    108 C38        -3.0780    2.0970    3.0470 c3        1 MOL     -0.483435
    109 C39        -1.3800    2.0270    5.6990 c3        1 MOL     -0.123112
    110 H46         0.6660    3.9080    2.4590 hn        1 MOL      0.236227
    111 H47        -0.8080    1.7060    1.2610 h1        1 MOL      0.025064
    112 H48        -1.6550    3.5820    3.5570 hc        1 MOL     -0.051857
    113 H49         0.2450    2.2730    4.4140 hc        1 MOL     -0.009452
    114 H50        -0.6780    0.7750    4.0590 hc        1 MOL     -0.009452
    115 H51        -3.6110    2.9150    2.5520 hc        1 MOL      0.108821
    116 H52        -3.0980    1.1430    2.5190 hc        1 MOL      0.108821
    117 H53        -3.5640    1.8680    3.9880 hc        1 MOL      0.108821
    118 H54        -1.7260    3.0500    5.7840 hc        1 MOL      0.026324
    119 H55        -2.2730    1.4390    5.9020 hc        1 MOL      0.026324
    120 H56        -0.6760    1.8520    6.5190 hc        1 MOL      0.026324
    121 N11        -2.2810    2.9930   -0.2100 n         1 MOL     -0.096733
    122 C40        -3.2100    3.6570   -1.1830 c3        1 MOL     -0.224266
    123 C41        -4.6560    3.6440   -0.6150 c         1 MOL      0.475081
    124 O16        -5.0800    2.8710    0.2340 o         1 MOL     -0.435140
    125 C42        -3.1790    2.8710   -2.5440 c3        1 MOL      0.087784
    126 O17        -3.4470    1.5220   -2.3450 oh        1 MOL     -0.449985
    127 H57        -2.0910    2.0090   -0.3410 hn        1 MOL      0.278002
    128 H58        -2.8230    4.6510   -1.4010 h1        1 MOL      0.112184
    129 H59        -2.1790    2.9940   -2.9550 h1        1 MOL      0.043360
    130 H60        -3.8470    3.3310   -3.2740 h1        1 MOL      0.043360
    131 H61        -2.7310    1.2350   -1.7710 ho        1 MOL      0.345685
    132 N12        -5.5300    4.4680   -1.0930 n         1 MOL     -0.395800
    133 C43        -6.9650    4.3660   -0.9430 c3        1 MOL      0.159744
    134 C44        -7.4100    2.9540   -1.4460 c         1 MOL      0.427728
    135 O18        -8.2570    2.3660   -0.7440 o         1 MOL     -0.511955
    136 C45        -7.6420    5.4790   -1.6980 c3        1 MOL     -0.294211
    137 H62        -5.1690    5.2400   -1.6250 hn        1 MOL      0.268335
    138 H63        -7.1710    4.4100    0.1210 h1        1 MOL      0.090649
    139 H64        -7.3710    5.4020   -2.7500 hc        1 MOL      0.086535
    140 H65        -8.7080    5.3490   -1.4840 hc        1 MOL      0.086535
    141 H66        -7.3270    6.4700   -1.3900 hc        1 MOL      0.086535
    142 N13        -6.9440    2.4390   -2.5680 n         1 MOL     -0.292894
    143 C46        -7.2900    1.0540   -3.0370 c3        1 MOL      0.053089
    144 C47        -6.9750   -0.1130   -2.1040 c         1 MOL      0.310830
    145 O19        -7.7690   -1.0530   -1.9430 o         1 MOL     -0.493609
    146 C48        -6.6730    0.9070   -4.4180 c3        1 MOL     -0.233471
    147 H67        -6.4870    3.0810   -3.2090 hn        1 MOL      0.233499
    148 H68        -8.3650    1.1250   -3.2140 h1        1 MOL      0.096038
    149 H69        -5.5970    1.0280   -4.3810 hc        1 MOL      0.078737
    150 H70        -6.7690   -0.1180   -4.7670 hc        1 MOL      0.078737
    151 H71        -7.1190    1.4920   -5.2160 hc        1 MOL      0.078737
    152 N14        -5.8610   -0.0810   -1.3700 n         1 MOL      0.164385
    153 C49        -5.5700   -0.9930   -0.3020 c3        1 MOL     -0.243764
    154 C50        -6.4470   -0.8560    0.9780 c         1 MOL      0.512990
    155 O20        -6.9350   -1.7800    1.5990 o         1 MOL     -0.547676
    156 C51        -4.0820   -0.9810    0.0600 c3        1 MOL      0.295899
    157 C52        -3.1230   -1.5790   -0.9740 c3        1 MOL     -0.108871
    158 C53        -1.7300   -0.9820   -0.8730 c         1 MOL      0.719677
    159 O21        -1.4910    0.2310   -0.9920 o         1 MOL     -0.724412
    160 O22        -0.7560   -1.7260   -0.5890 o         1 MOL     -0.724412
    161 H72        -5.1200    0.5640   -1.6290 hn        1 MOL     -0.026335
    162 H73        -5.7170   -2.0190   -0.6550 h1        1 MOL      0.070044
    163 H74        -3.8680   -1.4440    1.0140 hc        1 MOL     -0.099783
    164 H75        -3.8010    0.0600    0.2260 hc        1 MOL     -0.099783
    165 H76        -3.4530   -1.4250   -1.9980 hc        1 MOL      0.006843
    166 H77        -3.0390   -2.6390   -0.7380 hc        1 MOL      0.006843
    167 N15        -6.8450    0.3850    1.3140 n         1 MOL     -0.140441
    168 C54        -7.9800    0.5140    2.2770 c3        1 MOL     -0.282264
    169 H78        -7.8630   -0.2180    3.0760 h1        1 MOL      0.116354
    170 H79        -7.9850    1.5180    2.7020 h1        1 MOL      0.116354
    171 H80        -8.9210    0.3330    1.7560 h1        1 MOL      0.116354
    172 H81        -6.4190    1.1590    0.8150 hn        1 MOL      0.125089
    173 Ca1         1.2240   -0.1660   -1.1850 Ca        1 MOL      1.713750
    174 O23         0.9130    2.4400   -2.2540 oh        1 MOL     -0.837481
    175 H82         1.6160    2.8190   -2.7880 ho        1 MOL      0.403936
    176 H83         0.3280    3.1800   -2.0750 ho        1 MOL      0.403936
    177 O24         0.3120   -0.3170   -3.7100 oh        1 MOL     -0.837481
    178 H84         0.9670   -0.9200   -4.0780 ho        1 MOL      0.403936
    179 H85         0.3030    0.4190   -4.3200 ho        1 MOL      0.403936
@<TRIPOS>BOND
     1    1    2 1   
     2    1    4 1   
     3    1    5 1   
     4    1    6 1   
     5    2    3 2   
     6    2    7 1   
     7    7    8 1   
     8    7   15 1   
     9    8    9 1   
    10    8   11 1   
    11    8   16 1   
    12    9   10 2   
    13    9   19 1   
    14   11   12 1   
    15   11   17 1   
    16   11   18 1   
    17   12   13 1   
    18   12   14 1   
    19   19   20 1   
    20   19   28 1   
    21   20   21 1   
    22   20   23 1   
    23   20   29 1   
    24   21   22 2   
    25   21   41 1   
    26   23   24 1   
    27   23   30 1   
    28   23   31 1   
    29   24   25 1   
    30   24   32 1   
    31   24   33 1   
    32   25   26 1   
    33   25   34 1   
    34   25   35 1   
    35   26   27 1   
    36   26   36 1   
    37   26   37 1   
    38   27   38 1   
    39   27   39 1   
    40   27   40 1   
    41   41   42 1   
    42   41   49 1   
    43   42   43 1   
    44   42   45 1   
    45   42   50 1   
    46   43   44 2   
    47   43   53 1   
    48   45   46 1   
    49   45   51 1   
    50   45   52 1   
    51   46   47 1   
    52   46   48 1   
    53   53   54 1   
    54   53   57 1   
    55   54   55 1   
    56   54   58 1   
    57   54   59 1   
    58   55   56 2   
    59   55   60 1   
    60   60   61 1   
    61   60   68 1   
    62   61   62 1   
    63   61   64 1   
    64   61   69 1   
    65   62   63 2   
    66   62   74 1   
    67   64   65 1   
    68   64   70 1   
    69   64   71 1   
    70   65   66 1   
    71   65   67 2   
    72   66   72 1   
    73   66   73 1   
    74   74   75 1   
    75   74   78 1   
    76   75   76 1   
    77   75   79 1   
    78   75   80 1   
    79   76   77 2   
    80   76   81 1   
    81   81   82 1   
    82   81   93 1   
    83   82   83 1   
    84   82   85 1   
    85   82   94 1   
    86   83   84 2   
    87   83  102 1   
    88   85   86 1   
    89   85   95 1   
    90   85   96 1   
    91   86   87 ar  
    92   86   88 ar  
    93   87   89 ar  
    94   87   97 1   
    95   88   90 ar  
    96   88   98 1   
    97   89   91 ar  
    98   89   99 1   
    99   90   91 ar  
   100   90  100 1   
   101   91   92 1   
   102   92  101 1   
   103  102  103 1   
   104  102  110 1   
   105  103  104 1   
   106  103  106 1   
   107  103  111 1   
   108  104  105 2   
   109  104  121 1   
   110  106  107 1   
   111  106  108 1   
   112  106  112 1   
   113  107  109 1   
   114  107  113 1   
   115  107  114 1   
   116  108  115 1   
   117  108  116 1   
   118  108  117 1   
   119  109  118 1   
   120  109  119 1   
   121  109  120 1   
   122  121  122 1   
   123  121  127 1   
   124  122  123 1   
   125  122  125 1   
   126  122  128 1   
   127  123  124 2   
   128  123  132 1   
   129  125  126 1   
   130  125  129 1   
   131  125  130 1   
   132  126  131 1   
   133  132  133 1   
   134  132  137 1   
   135  133  134 1   
   136  133  136 1   
   137  133  138 1   
   138  134  135 2   
   139  134  142 1   
   140  136  139 1   
   141  136  140 1   
   142  136  141 1   
   143  142  143 1   
   144  142  147 1   
   145  143  144 1   
   146  143  146 1   
   147  143  148 1   
   148  144  145 2   
   149  144  152 1   
   150  146  149 1   
   151  146  150 1   
   152  146  151 1   
   153  152  153 1   
   154  152  161 1   
   155  153  154 1   
   156  153  156 1   
   157  153  162 1   
   158  154  155 2   
   159  154  167 1   
   160  156  157 1   
   161  156  163 1   
   162  156  164 1   
   163  157  158 1   
   164  157  165 1   
   165  157  166 1   
   166  158  159 1   
   167  158  160 1   
   168  167  168 1   
   169  167  172 1   
   170  168  169 1   
   171  168  170 1   
   172  168  171 1   
   173  174  175 1   
   174  174  176 1   
   175  177  178 1   
   176  177  179 1   
@<TRIPOS>SUBSTRUCTURE
     1 MOL         1 TEMP              0 ****  ****    0 ROOT
