@<TRIPOS>MOLECULE
MOL
  189   185     1     0     0
SMALL
resp


@<TRIPOS>ATOM
      1 C1          1.2820   -4.0140    6.0090 c3        1 MOL     -0.471104
      2 C2          1.3190   -3.6110    4.4980 c         1 MOL      0.755409
      3 O1          0.5050   -2.8850    3.9920 o         1 MOL     -0.588386
      4 H1          0.3020   -3.7750    6.4240 hc        1 MOL      0.116441
      5 H2          1.4650   -5.0840    6.1050 hc        1 MOL      0.116441
      6 H3          2.0500   -3.4630    6.5510 hc        1 MOL      0.116441
      7 N1          2.2840   -4.1980    3.7550 n         1 MOL     -0.676478
      8 C3          2.6080   -3.7610    2.3420 c3        1 MOL      0.189609
      9 C4          2.5390   -4.8850    1.3010 c         1 MOL      0.597921
     10 O2          2.9350   -5.9570    1.5710 o         1 MOL     -0.599065
     11 C5          4.0170   -3.2400    2.3930 c3        1 MOL     -0.337387
     12 C6          4.5430   -2.8980    1.0210 c         1 MOL      0.671004
     13 O3          3.8310   -2.0700    0.3300 o         1 MOL     -0.593146
     14 O4          5.5380   -3.5210    0.5810 o         1 MOL     -0.593146
     15 H4          2.9230   -4.7950    4.2590 hn        1 MOL      0.339257
     16 H5          1.8900   -3.0000    2.0320 h1        1 MOL      0.031720
     17 H6          4.6310   -4.0330    2.8380 hc        1 MOL      0.048846
     18 H7          4.1180   -2.3390    2.9830 hc        1 MOL      0.048846
     19 N2          1.9260   -4.6540    0.1770 n         1 MOL     -0.008211
     20 C7          1.8900   -5.5730   -0.9840 c3        1 MOL     -0.388084
     21 C8          2.6970   -5.1490   -2.2150 c         1 MOL      0.579622
     22 O5          2.8060   -5.9110   -3.1920 o         1 MOL     -0.584842
     23 C9          0.3450   -5.8090   -1.4400 c3        1 MOL      0.388327
     24 C10        -0.3300   -4.4450   -1.7800 c3        1 MOL     -0.061648
     25 C11        -0.4360   -6.5110   -0.3870 c3        1 MOL     -0.414881
     26 C12        -1.5960   -4.5540   -2.6400 c3        1 MOL     -0.250496
     27 H8          1.5230   -3.7340    0.0740 hn        1 MOL     -0.024798
     28 H9          2.2450   -6.5480   -0.6730 h1        1 MOL      0.142098
     29 H10         0.2210   -6.3530   -2.3640 hc        1 MOL     -0.049355
     30 H11         0.3390   -3.8630   -2.4150 hc        1 MOL      0.068598
     31 H12        -0.5010   -3.9980   -0.7960 hc        1 MOL      0.068598
     32 H13        -0.3620   -5.9310    0.5340 hc        1 MOL      0.077545
     33 H14        -1.4800   -6.6100   -0.6620 hc        1 MOL      0.077545
     34 H15        -0.0320   -7.5200   -0.4890 hc        1 MOL      0.077545
     35 H16        -1.4420   -5.1950   -3.5050 hc        1 MOL      0.072336
     36 H17        -2.3790   -4.9710   -2.0020 hc        1 MOL      0.072336
     37 H18        -1.9530   -3.5960   -2.9920 hc        1 MOL      0.072336
     38 N3          3.3000   -3.9250   -2.1500 n         1 MOL     -0.333463
     39 C13         3.8840   -3.3430   -3.4340 c3        1 MOL      0.046224
     40 C14         5.2600   -2.6040   -3.2260 c         1 MOL      0.271732
     41 O6          6.0500   -2.4140   -4.1850 o         1 MOL     -0.560306
     42 C15         2.9290   -2.4280   -4.1090 c3        1 MOL     -0.273986
     43 C16         2.6510   -1.0290   -3.4400 c         1 MOL      0.809180
     44 O7          3.1090   -0.7740   -2.3270 o         1 MOL     -0.717732
     45 O8          1.8940   -0.2720   -4.0650 o         1 MOL     -0.717732
     46 H19         3.1350   -3.2940   -1.3880 hn        1 MOL      0.323023
     47 H20         4.0740   -4.1930   -4.0780 h1        1 MOL      0.097056
     48 H21         1.9850   -2.9850   -4.1520 hc        1 MOL      0.072200
     49 H22         3.2570   -2.1390   -5.1090 hc        1 MOL      0.072200
     50 N4          5.5590   -2.2540   -2.0220 n         1 MOL      0.164585
     51 C17         6.8780   -1.6290   -1.6270 c3        1 MOL      0.012541
     52 C18         7.0620   -0.1740   -2.0510 c         1 MOL      0.296438
     53 O9          8.1700    0.1840   -2.4040 o         1 MOL     -0.545484
     54 H23         4.8940   -2.4490   -1.2890 hn        1 MOL     -0.224160
     55 H24         7.6640   -2.2960   -1.9800 h1        1 MOL      0.042518
     56 H25         6.9450   -1.7600   -0.5500 h1        1 MOL      0.042518
     57 N5          5.9930    0.5950   -2.2040 n         1 MOL      0.012954
     58 C19         6.1790    2.0260   -2.4350 c3        1 MOL     -0.095839
     59 C20         6.6510    2.8780   -1.2670 c         1 MOL      0.464523
     60 O10         7.1050    3.9770   -1.5070 o         1 MOL     -0.539766
     61 C21         4.8830    2.5980   -3.0100 c3        1 MOL     -0.144878
     62 C22         3.6050    2.6110   -2.1330 c         1 MOL      0.657489
     63 O11         3.5530    1.8760   -1.1020 o         1 MOL     -0.682162
     64 O12         2.6600    3.3790   -2.4990 o         1 MOL     -0.682162
     65 H26         5.0280    0.2880   -2.1270 hn        1 MOL      0.112786
     66 H27         6.9420    2.1650   -3.1900 h1        1 MOL      0.089497
     67 H28         4.7360    1.9990   -3.9140 hc        1 MOL      0.059755
     68 H29         5.0770    3.6230   -3.3400 hc        1 MOL      0.059755
     69 N6          6.4160    2.4580   -0.0240 n         1 MOL     -0.281884
     70 C23         6.6480    3.3720    1.1140 c3        1 MOL     -0.144472
     71 C24         5.3920    4.0990    1.6500 c         1 MOL      0.424568
     72 O13         5.5030    4.9860    2.4680 o         1 MOL     -0.566102
     73 H30         5.9530    1.5770    0.1370 hn        1 MOL      0.175808
     74 H31         7.4980    3.9850    0.8150 h1        1 MOL      0.104609
     75 H32         7.0690    2.7430    1.8930 h1        1 MOL      0.104609
     76 N7          4.1410    3.7290    1.2900 n         1 MOL     -0.112168
     77 C25         2.8910    4.2160    1.7830 c3        1 MOL     -0.297704
     78 C26         1.9190    3.0840    1.9590 c         1 MOL      0.601689
     79 O14         1.7840    2.2640    1.0970 o         1 MOL     -0.506319
     80 C27         2.2870    5.2130    0.7850 c3        1 MOL      0.059569
     81 C28         3.2790    6.3520    0.4250 c3        1 MOL     -0.229865
     82 C29         2.5840    7.4030   -0.4530 c         1 MOL      0.523786
     83 N8          2.1540    7.0280   -1.6690 n         1 MOL     -0.695875
     84 O15         2.2780    8.5090    0.0060 o         1 MOL     -0.579368
     85 H33         4.1760    2.8660    0.7600 hn        1 MOL      0.199168
     86 H34         2.9890    4.7800    2.7130 h1        1 MOL      0.114690
     87 H35         1.3680    5.6210    1.2150 hc        1 MOL      0.056897
     88 H36         2.0310    4.7840   -0.1830 hc        1 MOL      0.056897
     89 H37         4.0580    6.0370   -0.2590 hc        1 MOL      0.115401
     90 H38         3.7900    6.8240    1.2680 hc        1 MOL      0.115401
     91 H39         2.2790    6.1160   -2.0680 hn        1 MOL      0.338674
     92 H40         1.6710    7.7710   -2.1550 hn        1 MOL      0.338674
     93 N9          1.1000    3.1390    3.0370 n         1 MOL     -0.447857
     94 C30        -0.0500    2.3150    3.1820 c3        1 MOL     -0.083660
     95 C31        -1.1290    2.9190    2.3100 c         1 MOL      0.372562
     96 O16        -1.4620    4.0860    2.3850 o         1 MOL     -0.599970
     97 C32        -0.4570    2.1820    4.7130 c3        1 MOL      0.317151
     98 C33        -1.8620    1.6710    4.8670 c3        1 MOL     -0.284014
     99 C34         0.5660    1.2680    5.3090 c3        1 MOL     -0.284014
    100 H41         1.3220    3.8880    3.6720 hn        1 MOL      0.272887
    101 H42         0.2020    1.3110    2.8280 h1        1 MOL      0.121498
    102 H43        -0.3760    3.1250    5.2580 hc        1 MOL     -0.013867
    103 H44        -2.0330    0.7980    4.2440 hc        1 MOL      0.051805
    104 H45        -1.9300    1.5230    5.9370 hc        1 MOL      0.051805
    105 H46        -2.6300    2.3810    4.5420 hc        1 MOL      0.051805
    106 H47         1.5720    1.4200    4.8960 hc        1 MOL      0.051805
    107 H48         0.4920    1.4090    6.3860 hc        1 MOL      0.051805
    108 H49         0.2370    0.2530    5.1120 hc        1 MOL      0.051805
    109 N10        -1.7250    2.1940    1.3930 n         1 MOL      0.054658
    110 C35        -2.7850    2.7180    0.5160 c3        1 MOL      0.107777
    111 C36        -4.1330    2.2440    1.0390 c         1 MOL      0.249378
    112 O17        -4.2100    1.5250    2.0630 o         1 MOL     -0.457535
    113 C37        -2.4120    2.0220   -0.8060 c3        1 MOL     -0.148208
    114 C38        -3.2790    2.0510   -2.0050 c         1 MOL      0.705955
    115 N11        -3.6640    3.1900   -2.5450 n         1 MOL     -0.772557
    116 O18        -3.6870    0.9710   -2.4390 o         1 MOL     -0.541539
    117 H50        -1.3300    1.2790    1.2180 hn        1 MOL      0.114759
    118 H51        -2.6900    3.8000    0.4240 h1        1 MOL      0.037865
    119 H52        -2.2240    0.9610   -0.6200 hc        1 MOL      0.047450
    120 H53        -1.4450    2.3960   -1.1170 hc        1 MOL      0.047450
    121 H54        -3.4000    4.0840   -2.1820 hn        1 MOL      0.341836
    122 H55        -4.3780    3.1080   -3.2530 hn        1 MOL      0.341836
    123 N12        -5.2620    2.4980    0.3920 n         1 MOL     -0.076451
    124 C39        -6.5080    1.9550    0.7850 c3        1 MOL     -0.024835
    125 C40        -6.6790    0.4440    0.7300 c         1 MOL      0.395887
    126 O19        -7.6810   -0.0280    1.3740 o         1 MOL     -0.564675
    127 C41        -7.6740    2.6220    0.0240 c3        1 MOL     -0.096122
    128 C42        -7.7130    2.5910   -1.5010 ca        1 MOL      0.193936
    129 C43        -8.6120    1.6470   -2.0650 ca        1 MOL     -0.300704
    130 C44        -7.0300    3.4880   -2.3180 ca        1 MOL     -0.300704
    131 C45        -8.7300    1.5640   -3.4600 ca        1 MOL     -0.189645
    132 C46        -7.2360    3.5000   -3.6780 ca        1 MOL     -0.189645
    133 C47        -8.0530    2.4720   -4.2590 ca        1 MOL      0.308162
    134 O20        -8.0750    2.3240   -5.6220 oh        1 MOL     -0.551103
    135 H56        -5.2500    3.2510   -0.2790 hn        1 MOL      0.074713
    136 H57        -6.5910    2.1080    1.8580 h1        1 MOL      0.069325
    137 H58        -7.7110    3.6920    0.2420 hc        1 MOL      0.043619
    138 H59        -8.6400    2.3820    0.4670 hc        1 MOL      0.043619
    139 H60        -9.2070    0.8950   -1.5570 ha        1 MOL      0.183229
    140 H61        -6.1750    4.0580   -1.9810 ha        1 MOL      0.183229
    141 H62        -9.3520    0.8100   -3.9050 ha        1 MOL      0.137192
    142 H63        -6.7110    4.2010   -4.3070 ha        1 MOL      0.137192
    143 H64        -8.4970    1.5200   -5.9290 ho        1 MOL      0.419599
    144 N13        -5.8740   -0.2860   -0.0620 n         1 MOL     -0.061489
    145 C48        -5.9200   -1.7490   -0.1290 c3        1 MOL      0.000285
    146 C49        -5.1700   -2.4200    1.0200 c         1 MOL      0.255863
    147 O21        -5.3190   -3.5980    1.3400 o         1 MOL     -0.522036
    148 C50        -5.3450   -2.3120   -1.4310 c3        1 MOL     -0.071532
    149 C51        -6.1110   -1.7490   -2.6630 c3        1 MOL     -0.212550
    150 C52        -6.0510   -2.6040   -3.9330 c         1 MOL      0.682045
    151 O22        -7.1550   -3.1250   -4.2230 o         1 MOL     -0.731351
    152 O23        -4.9700   -2.7540   -4.5830 o         1 MOL     -0.731351
    153 H65        -5.4570    0.2280   -0.8320 hn        1 MOL      0.120772
    154 H66        -6.9360   -2.1620   -0.0890 h1        1 MOL      0.074075
    155 H67        -5.3620   -3.4040   -1.3690 hc        1 MOL      0.083929
    156 H68        -4.3560   -1.8630   -1.4930 hc        1 MOL      0.083929
    157 H69        -5.7330   -0.7510   -2.8850 hc        1 MOL      0.048298
    158 H70        -7.0830   -1.5250   -2.2110 hc        1 MOL      0.048298
    159 N14        -4.3170   -1.6790    1.7090 n         1 MOL     -0.070414
    160 C53        -3.5420   -2.2160    2.7790 c3        1 MOL     -0.124620
    161 C54        -4.1420   -1.9410    4.1880 c         1 MOL      0.453731
    162 O24        -3.5020   -2.3780    5.1740 o         1 MOL     -0.543608
    163 C55        -2.1730   -1.5170    2.5890 c3        1 MOL     -0.031319
    164 C56        -1.4540   -2.1470    1.2670 c3        1 MOL     -0.047039
    165 C57        -0.2820   -1.3650    0.7800 c         1 MOL      0.917952
    166 O25        -0.2790   -0.1010    0.8600 o         1 MOL     -0.827446
    167 O26         0.6270   -1.9790    0.2150 o         1 MOL     -0.827446
    168 H71        -4.2330   -0.6950    1.5020 hn        1 MOL      0.059411
    169 H72        -3.3790   -3.2950    2.7290 h1        1 MOL      0.129051
    170 H73        -1.5430   -1.5620    3.4760 hc        1 MOL      0.062424
    171 H74        -2.2570   -0.4400    2.4870 hc        1 MOL      0.062424
    172 H75        -2.0860   -2.2400    0.3800 hc        1 MOL      0.029457
    173 H76        -1.0670   -3.1460    1.4340 hc        1 MOL      0.029457
    174 N15        -5.2450   -1.2390    4.3240 n         1 MOL     -0.273890
    175 C58        -5.6560   -0.6340    5.6000 c3        1 MOL     -0.118996
    176 H77        -6.6560   -0.2120    5.4960 h1        1 MOL      0.070759
    177 H78        -5.6630   -1.3950    6.3790 h1        1 MOL      0.070759
    178 H79        -4.9560    0.1580    5.8700 h1        1 MOL      0.070759
    179 H80        -5.7240   -0.9160    3.4970 hn        1 MOL      0.263788
    180 Ca1         2.3500   -0.0450    0.1550 Ca        1 MOL      1.674901
    181 O27         4.4020    0.7160    1.8160 oh        1 MOL     -0.812360
    182 H81         5.1660    0.1300    1.8530 ho        1 MOL      0.406588
    183 H82         4.2310    0.9480    2.7350 ho        1 MOL      0.406588
    184 O28         1.9650   -0.6080    2.8260 oh        1 MOL     -0.812360
    185 H83         2.4580   -1.0320    3.5280 ho        1 MOL      0.406588
    186 H84         1.1270   -1.0700    2.8090 ho        1 MOL      0.406588
    187 O29         0.8350    1.2180   -1.8410 oh        1 MOL     -0.812360
    188 H85         1.4000    1.9940   -1.9210 ho        1 MOL      0.406588
    189 H86         1.0750    0.6720   -2.5940 ho        1 MOL      0.406588
@<TRIPOS>BOND
     1    1    2 1   
     2    1    4 1   
     3    1    5 1   
     4    1    6 1   
     5    2    3 2   
     6    2    7 1   
     7    7    8 1   
     8    7   15 1   
     9    8    9 1   
    10    8   11 1   
    11    8   16 1   
    12    9   10 2   
    13    9   19 1   
    14   11   12 1   
    15   11   17 1   
    16   11   18 1   
    17   12   13 1   
    18   12   14 1   
    19   19   20 1   
    20   19   27 1   
    21   20   21 1   
    22   20   23 1   
    23   20   28 1   
    24   21   22 2   
    25   21   38 1   
    26   23   24 1   
    27   23   25 1   
    28   23   29 1   
    29   24   26 1   
    30   24   30 1   
    31   24   31 1   
    32   25   32 1   
    33   25   33 1   
    34   25   34 1   
    35   26   35 1   
    36   26   36 1   
    37   26   37 1   
    38   38   39 1   
    39   38   46 1   
    40   39   40 1   
    41   39   42 1   
    42   39   47 1   
    43   40   41 2   
    44   40   50 1   
    45   42   43 1   
    46   42   48 1   
    47   42   49 1   
    48   43   44 1   
    49   43   45 1   
    50   50   51 1   
    51   50   54 1   
    52   51   52 1   
    53   51   55 1   
    54   51   56 1   
    55   52   53 2   
    56   52   57 1   
    57   57   58 1   
    58   57   65 1   
    59   58   59 1   
    60   58   61 1   
    61   58   66 1   
    62   59   60 2   
    63   59   69 1   
    64   61   62 1   
    65   61   67 1   
    66   61   68 1   
    67   62   63 1   
    68   62   64 1   
    69   69   70 1   
    70   69   73 1   
    71   70   71 1   
    72   70   74 1   
    73   70   75 1   
    74   71   72 2   
    75   71   76 1   
    76   76   77 1   
    77   76   85 1   
    78   77   78 1   
    79   77   80 1   
    80   77   86 1   
    81   78   79 2   
    82   78   93 1   
    83   80   81 1   
    84   80   87 1   
    85   80   88 1   
    86   81   82 1   
    87   81   89 1   
    88   81   90 1   
    89   82   83 1   
    90   82   84 2   
    91   83   91 1   
    92   83   92 1   
    93   93   94 1   
    94   93  100 1   
    95   94   95 1   
    96   94   97 1   
    97   94  101 1   
    98   95   96 2   
    99   95  109 1   
   100   97   98 1   
   101   97   99 1   
   102   97  102 1   
   103   98  103 1   
   104   98  104 1   
   105   98  105 1   
   106   99  106 1   
   107   99  107 1   
   108   99  108 1   
   109  109  110 1   
   110  109  117 1   
   111  110  111 1   
   112  110  113 1   
   113  110  118 1   
   114  111  112 2   
   115  111  123 1   
   116  113  114 1   
   117  113  119 1   
   118  113  120 1   
   119  114  115 1   
   120  114  116 2   
   121  115  121 1   
   122  115  122 1   
   123  123  124 1   
   124  123  135 1   
   125  124  125 1   
   126  124  127 1   
   127  124  136 1   
   128  125  126 2   
   129  125  144 1   
   130  127  128 1   
   131  127  137 1   
   132  127  138 1   
   133  128  129 ar  
   134  128  130 ar  
   135  129  131 ar  
   136  129  139 1   
   137  130  132 ar  
   138  130  140 1   
   139  131  133 ar  
   140  131  141 1   
   141  132  133 ar  
   142  132  142 1   
   143  133  134 1   
   144  134  143 1   
   145  144  145 1   
   146  144  153 1   
   147  145  146 1   
   148  145  148 1   
   149  145  154 1   
   150  146  147 2   
   151  146  159 1   
   152  148  149 1   
   153  148  155 1   
   154  148  156 1   
   155  149  150 1   
   156  149  157 1   
   157  149  158 1   
   158  150  151 1   
   159  150  152 1   
   160  159  160 1   
   161  159  168 1   
   162  160  161 1   
   163  160  163 1   
   164  160  169 1   
   165  161  162 2   
   166  161  174 1   
   167  163  164 1   
   168  163  170 1   
   169  163  171 1   
   170  164  165 1   
   171  164  172 1   
   172  164  173 1   
   173  165  166 1   
   174  165  167 1   
   175  174  175 1   
   176  174  179 1   
   177  175  176 1   
   178  175  177 1   
   179  175  178 1   
   180  181  182 1   
   181  181  183 1   
   182  184  185 1   
   183  184  186 1   
   184  187  188 1   
   185  187  189 1   
@<TRIPOS>SUBSTRUCTURE
     1 MOL         1 TEMP              0 ****  ****    0 ROOT
