@<TRIPOS>MOLECULE
MOL
  189   185     1     0     0
SMALL
resp


@<TRIPOS>ATOM
      1 C1         -0.3990    2.6500   -5.4040 c3        1 MOL     -0.202001
      2 C2          0.1300    2.4790   -4.0360 c         1 MOL      0.673038
      3 O1         -0.3660    3.1140   -3.0640 o         1 MOL     -0.698025
      4 H1         -1.0960    3.4870   -5.4210 hc        1 MOL      0.047721
      5 H2          0.4250    2.8480   -6.0900 hc        1 MOL      0.047721
      6 H3         -0.9160    1.7410   -5.7110 hc        1 MOL      0.047721
      7 N1          1.1570    1.7310   -3.8940 n         1 MOL     -0.499411
      8 C3          1.8870    1.3290   -2.6440 c3        1 MOL      0.388524
      9 C4          2.5240    2.6160   -2.0620 c         1 MOL      0.202078
     10 O2          3.6470    3.0170   -2.3310 o         1 MOL     -0.481534
     11 C5          2.8940    0.2240   -2.7880 c3        1 MOL     -0.564375
     12 C6          3.6670   -0.0470   -1.3890 c         1 MOL      0.786729
     13 O3          3.3620    0.4650   -0.2900 o         1 MOL     -0.625009
     14 O4          4.7610   -0.7260   -1.4080 o         1 MOL     -0.625009
     15 H4          1.6170    1.3560   -4.7210 hn        1 MOL      0.297057
     16 H5          1.1480    0.9320   -1.9480 h1        1 MOL     -0.020429
     17 H6          3.6770    0.5320   -3.4740 hc        1 MOL      0.145679
     18 H7          2.3310   -0.6710   -3.0490 hc        1 MOL      0.145679
     19 N2          1.7840    3.1810   -1.1390 n         1 MOL     -0.006663
     20 C7          1.9110    4.6040   -0.8150 c3        1 MOL      0.013768
     21 C8          3.0580    4.9500    0.1740 c         1 MOL      0.425480
     22 O5          3.5650    6.0530    0.1350 o         1 MOL     -0.574604
     23 C9          0.5440    5.1910   -0.3000 c3        1 MOL     -0.079936
     24 C10         0.4150    6.7840   -0.4780 c3        1 MOL     -0.075446
     25 C11         0.5970    7.4350   -1.9240 c3        1 MOL     -0.064503
     26 C12         0.0150    6.5400   -3.0370 c3        1 MOL      0.090322
     27 N3          0.3710    7.1990   -4.2580 n4        1 MOL     -0.663867
     28 H8          0.9500    2.7000   -0.8530 hn        1 MOL      0.210269
     29 H9          2.1380    5.1090   -1.7500 h1        1 MOL      0.041689
     30 H10         0.4610    4.8830    0.7380 hc        1 MOL      0.043204
     31 H11        -0.3150    4.8420   -0.8880 hc        1 MOL      0.043204
     32 H12         1.2010    7.2440    0.1210 hc        1 MOL      0.036312
     33 H13        -0.5270    7.1470   -0.0660 hc        1 MOL      0.036312
     34 H14         1.6780    7.5740   -2.0250 hc        1 MOL      0.047776
     35 H15         0.0260    8.3540   -1.8300 hc        1 MOL      0.047776
     36 H16        -1.0160    6.2360   -2.8430 hx        1 MOL      0.117145
     37 H17         0.5530    5.5980   -2.9450 hx        1 MOL      0.117145
     38 H18        -0.3540    7.8770   -4.4600 hn        1 MOL      0.400462
     39 H19         1.3360    7.5010   -4.2590 hn        1 MOL      0.400462
     40 H20         0.3350    6.5070   -4.9850 hn        1 MOL      0.400462
     41 N4          3.3720    4.0480    1.0460 n         1 MOL     -0.119449
     42 C13         4.4960    4.0360    2.0060 c3        1 MOL      0.138683
     43 C14         5.7210    3.1850    1.5400 c         1 MOL      0.295972
     44 O6          6.8420    3.3820    2.0030 o         1 MOL     -0.495723
     45 C15         4.0410    3.5870    3.4370 c3        1 MOL     -0.524038
     46 C16         3.0690    2.3650    3.4950 c         1 MOL      0.844451
     47 O7          2.3770    2.1390    4.5260 o         1 MOL     -0.696875
     48 O8          3.0110    1.5450    2.5410 o         1 MOL     -0.696875
     49 H21         2.8910    3.1620    0.9680 hn        1 MOL      0.112631
     50 H22         4.7890    5.0750    2.1010 h1        1 MOL      0.074586
     51 H23         3.5060    4.4640    3.8170 hc        1 MOL      0.133461
     52 H24         4.9620    3.4250    4.0060 hc        1 MOL      0.133461
     53 N5          5.4490    2.3450    0.5400 n         1 MOL      0.159119
     54 C17         6.4380    1.6850   -0.2370 c3        1 MOL     -0.172882
     55 C18         7.0320    0.5030    0.4650 c         1 MOL      0.480310
     56 O9          8.2410    0.4520    0.7760 o         1 MOL     -0.577336
     57 H25         4.5040    2.2260    0.2160 hn        1 MOL     -0.151837
     58 H26         7.2370    2.4050   -0.4280 h1        1 MOL      0.088411
     59 H27         5.9550    1.3010   -1.1390 h1        1 MOL      0.088411
     60 N6          6.2280   -0.4550    0.9220 n         1 MOL     -0.118839
     61 C19         6.8630   -1.6540    1.8050 c3        1 MOL     -0.092725
     62 C20         7.0600   -2.9340    0.9690 c         1 MOL      0.488806
     63 O10         7.6920   -3.8990    1.3970 o         1 MOL     -0.542096
     64 C21         5.8580   -1.9980    2.9980 c3        1 MOL     -0.200488
     65 C22         4.3810   -2.0180    2.7550 c         1 MOL      0.808871
     66 O11         4.0100   -2.4240    1.6630 o         1 MOL     -0.785290
     67 O12         3.5200   -1.4710    3.5060 o         1 MOL     -0.785290
     68 H28         5.2690   -0.4630    0.6090 hn        1 MOL      0.071583
     69 H29         7.8350   -1.2680    2.0970 h1        1 MOL      0.148835
     70 H30         6.0080   -1.2920    3.8190 hc        1 MOL      0.067353
     71 H31         6.0850   -3.0070    3.3370 hc        1 MOL      0.067353
     72 N7          6.6050   -2.8490   -0.2580 n         1 MOL     -0.282547
     73 C23         6.5050   -3.9730   -1.1960 c3        1 MOL      0.035987
     74 C24         5.1300   -4.7040   -1.3150 c         1 MOL      0.488302
     75 O13         5.1180   -5.9280   -1.6760 o         1 MOL     -0.592852
     76 H32         6.0330   -2.0350   -0.4210 hn        1 MOL      0.176303
     77 H33         7.1590   -4.7580   -0.8000 h1        1 MOL      0.050252
     78 H34         6.8540   -3.6810   -2.1780 h1        1 MOL      0.050252
     79 N8          4.0500   -4.0500   -0.9900 n         1 MOL     -0.229365
     80 C25         2.6740   -4.6480   -0.9940 c3        1 MOL     -0.082628
     81 C26         1.5840   -3.5150   -1.2040 c         1 MOL      0.561825
     82 O14         1.7770   -2.3660   -0.7830 o         1 MOL     -0.577591
     83 C27         2.2930   -5.4360    0.2580 c3        1 MOL      0.619306
     84 C28         2.6200   -6.9410    0.2160 c3        1 MOL     -0.473402
     85 O15         2.9560   -4.9440    1.4060 oh        1 MOL     -0.689997
     86 H35         4.1080   -3.0490   -0.8830 hn        1 MOL      0.169256
     87 H36         2.5080   -5.3110   -1.8500 h1        1 MOL      0.048330
     88 H37         1.2070   -5.3810    0.2810 h1        1 MOL     -0.099089
     89 H38         3.1300   -4.0060    1.2970 ho        1 MOL      0.481934
     90 H39         3.7080   -7.0220    0.2240 hc        1 MOL      0.120717
     91 H40         2.2260   -7.3970    1.1260 hc        1 MOL      0.120717
     92 H41         2.1750   -7.3850   -0.6710 hc        1 MOL      0.120717
     93 N9          0.4000   -3.9470   -1.7300 n         1 MOL     -0.565931
     94 C29        -0.7800   -3.0780   -1.9790 c3        1 MOL      0.024284
     95 C30        -1.8780   -3.5730   -1.1180 c         1 MOL      0.559184
     96 O16        -2.3210   -4.6830   -1.3660 o         1 MOL     -0.584703
     97 C31        -1.2580   -3.0060   -3.4420 c3        1 MOL      0.236723
     98 C32        -0.1740   -2.2840   -4.2490 c3        1 MOL      0.240890
     99 C33        -2.6470   -2.4200   -3.7930 c3        1 MOL     -0.394269
    100 C34        -0.2430   -2.3440   -5.8160 c3        1 MOL     -0.158054
    101 H42         0.3310   -4.9310   -1.9380 hn        1 MOL      0.316614
    102 H43        -0.5310   -2.1300   -1.5010 h1        1 MOL      0.090385
    103 H44        -1.1700   -4.0200   -3.8350 hc        1 MOL     -0.028421
    104 H45         0.7370   -2.8450   -4.0160 hc        1 MOL     -0.072226
    105 H46        -0.0570   -1.2360   -3.9990 hc        1 MOL     -0.072226
    106 H47        -2.9470   -2.2140   -4.8200 hc        1 MOL      0.086896
    107 H48        -3.3880   -3.1330   -3.4120 hc        1 MOL      0.086896
    108 H49        -2.6440   -1.5000   -3.2120 hc        1 MOL      0.086896
    109 H50        -0.0750   -3.3660   -6.1490 hc        1 MOL      0.025480
    110 H51        -1.2240   -1.9960   -6.1480 hc        1 MOL      0.025480
    111 H52         0.5410   -1.7300   -6.2670 hc        1 MOL      0.025480
    112 N10        -2.5330   -2.7000   -0.3470 n         1 MOL     -0.297579
    113 C35        -3.7770   -3.0610    0.4040 c3        1 MOL      0.031043
    114 C36        -5.0920   -2.6940   -0.3030 c         1 MOL      0.388661
    115 O17        -5.1120   -1.8900   -1.1950 o         1 MOL     -0.432204
    116 C37        -3.7260   -2.3740    1.7580 c3        1 MOL      0.131541
    117 C38        -2.6100   -2.8010    2.6530 c3        1 MOL     -0.395805
    118 O18        -3.6300   -0.9790    1.6380 oh        1 MOL     -0.403384
    119 H53        -2.1840   -1.7500   -0.4000 hn        1 MOL      0.274097
    120 H54        -3.9320   -4.1120    0.6480 h1        1 MOL      0.062128
    121 H55        -4.6510   -2.5320    2.2950 h1        1 MOL      0.029574
    122 H56        -2.8580   -0.7220    2.1440 ho        1 MOL      0.384607
    123 H57        -1.5950   -2.6740    2.2840 hc        1 MOL      0.115284
    124 H58        -2.7360   -2.2020    3.5530 hc        1 MOL      0.115284
    125 H59        -2.7800   -3.8690    2.8210 hc        1 MOL      0.115284
    126 N11        -6.2150   -3.0700    0.2790 n         1 MOL     -0.158950
    127 C39        -7.4940   -2.5590   -0.1260 c3        1 MOL     -0.517429
    128 C40        -7.6200   -1.0100    0.1100 c         1 MOL      0.564342
    129 O19        -8.2240   -0.3820   -0.7640 o         1 MOL     -0.488734
    130 C41        -8.7060   -3.2580    0.5230 c3        1 MOL      0.483822
    131 C42        -8.8270   -4.7810    0.2920 c3        1 MOL     -0.363078
    132 O20        -8.6330   -3.1600    1.8960 oh        1 MOL     -0.634393
    133 H60        -6.0230   -3.7640    0.9860 hn        1 MOL      0.246074
    134 H61        -7.5150   -2.7550   -1.1980 h1        1 MOL      0.231390
    135 H62        -9.6230   -2.7580    0.2230 h1        1 MOL      0.013843
    136 H63        -9.5370   -3.1700    2.2200 ho        1 MOL      0.394062
    137 H64        -8.0150   -5.3100    0.7970 hc        1 MOL      0.093434
    138 H65        -9.8000   -5.1580    0.5710 hc        1 MOL      0.093434
    139 H66        -8.7790   -4.8040   -0.7950 hc        1 MOL      0.093434
    140 N12        -7.0530   -0.4550    1.1840 n         1 MOL     -0.344657
    141 C43        -6.9440    0.9640    1.4400 c3        1 MOL     -0.077100
    142 C44        -6.0490    1.7950    0.4470 c         1 MOL      0.383737
    143 O21        -6.5070    2.7910   -0.1450 o         1 MOL     -0.507476
    144 C45        -6.3610    1.0330    2.8720 c3        1 MOL     -0.017078
    145 C46        -6.3650    2.4200    3.5260 c3        1 MOL     -0.016761
    146 C47        -5.5980    2.3190    4.8560 c3        1 MOL      0.021265
    147 C48        -5.7650    3.6870    5.5250 c3        1 MOL      0.142702
    148 N13        -5.2310    3.7350    6.8470 n4        1 MOL     -0.451521
    149 H67        -6.6200   -1.1020    1.8250 hn        1 MOL      0.250419
    150 H68        -7.9510    1.3740    1.3670 h1        1 MOL      0.112035
    151 H69        -5.3750    0.5680    2.7930 hc        1 MOL      0.015568
    152 H70        -6.9600    0.3540    3.4770 hc        1 MOL      0.015568
    153 H71        -7.3520    2.8380    3.7330 hc        1 MOL      0.027728
    154 H72        -5.9420    3.1370    2.8260 hc        1 MOL      0.027728
    155 H73        -4.5850    1.9400    4.7060 hc        1 MOL      0.011607
    156 H74        -6.1780    1.6130    5.4580 hc        1 MOL      0.011607
    157 H75        -6.8120    3.9620    5.4860 hx        1 MOL      0.056990
    158 H76        -5.2250    4.4120    4.9030 hx        1 MOL      0.056990
    159 H77        -5.4870    2.9580    7.4420 hn        1 MOL      0.351399
    160 H78        -4.2210    3.7710    6.7720 hn        1 MOL      0.351399
    161 H79        -5.6270    4.5350    7.3130 hn        1 MOL      0.351399
    162 N14        -4.9020    1.2240    0.0330 n         1 MOL     -0.072940
    163 C49        -4.0610    1.9030   -1.0010 c3        1 MOL     -0.170744
    164 C50        -4.7070    2.0230   -2.3790 c         1 MOL      0.475966
    165 O22        -4.2930    2.9120   -3.1110 o         1 MOL     -0.539199
    166 C51        -2.7200    1.0550   -1.1100 c3        1 MOL      0.077538
    167 C52        -1.8580    1.4280    0.1340 c3        1 MOL      0.007373
    168 C53        -0.5700    0.5700    0.4130 c         1 MOL      0.644138
    169 O23        -0.5810   -0.6410    0.3440 o         1 MOL     -0.695182
    170 O24         0.4540    1.2180    0.6370 o         1 MOL     -0.695182
    171 H80        -4.5630    0.3920    0.4920 hn        1 MOL      0.047710
    172 H81        -3.7240    2.8920   -0.6720 h1        1 MOL      0.110375
    173 H82        -2.2050    1.1650   -2.0720 hc        1 MOL     -0.004106
    174 H83        -2.9470   -0.0060   -1.0590 hc        1 MOL     -0.004106
    175 H84        -2.3970    1.3620    1.0850 hc        1 MOL     -0.028531
    176 H85        -1.5300    2.4630    0.0740 hc        1 MOL     -0.028531
    177 N15        -5.6900    1.1600   -2.6790 n         1 MOL     -0.099007
    178 C54        -6.5020    1.1990   -3.8760 c3        1 MOL     -0.387702
    179 H86        -7.1710    2.0580   -3.8320 h1        1 MOL      0.137517
    180 H87        -5.8570    1.2860   -4.7500 h1        1 MOL      0.137517
    181 H88        -7.0900    0.2840   -3.9470 h1        1 MOL      0.137517
    182 H89        -5.8930    0.4250   -2.0200 hn        1 MOL      0.189409
    183 Ca1         2.0410   -0.7390    1.4910 Ca        1 MOL      1.749898
    184 O25         1.0570   -3.1080    2.1130 oh        1 MOL     -0.875680
    185 H90         0.4720   -3.1990    2.8650 ho        1 MOL      0.389256
    186 H91         1.7200   -3.7820    2.2430 ho        1 MOL      0.389256
    187 O26         0.6430    0.1620    3.9840 oh        1 MOL     -0.875680
    188 H92         0.5250   -0.4410    4.7150 ho        1 MOL      0.389256
    189 H93         1.2630    0.8150    4.3130 ho        1 MOL      0.389256
@<TRIPOS>BOND
     1    1    2 1   
     2    1    4 1   
     3    1    5 1   
     4    1    6 1   
     5    2    3 2   
     6    2    7 1   
     7    7    8 1   
     8    7   15 1   
     9    8    9 1   
    10    8   11 1   
    11    8   16 1   
    12    9   10 2   
    13    9   19 1   
    14   11   12 1   
    15   11   17 1   
    16   11   18 1   
    17   12   13 1   
    18   12   14 1   
    19   19   20 1   
    20   19   28 1   
    21   20   21 1   
    22   20   23 1   
    23   20   29 1   
    24   21   22 2   
    25   21   41 1   
    26   23   24 1   
    27   23   30 1   
    28   23   31 1   
    29   24   25 1   
    30   24   32 1   
    31   24   33 1   
    32   25   26 1   
    33   25   34 1   
    34   25   35 1   
    35   26   27 1   
    36   26   36 1   
    37   26   37 1   
    38   27   38 1   
    39   27   39 1   
    40   27   40 1   
    41   41   42 1   
    42   41   49 1   
    43   42   43 1   
    44   42   45 1   
    45   42   50 1   
    46   43   44 2   
    47   43   53 1   
    48   45   46 1   
    49   45   51 1   
    50   45   52 1   
    51   46   47 1   
    52   46   48 1   
    53   53   54 1   
    54   53   57 1   
    55   54   55 1   
    56   54   58 1   
    57   54   59 1   
    58   55   56 2   
    59   55   60 1   
    60   60   61 1   
    61   60   68 1   
    62   61   62 1   
    63   61   64 1   
    64   61   69 1   
    65   62   63 2   
    66   62   72 1   
    67   64   65 1   
    68   64   70 1   
    69   64   71 1   
    70   65   66 1   
    71   65   67 1   
    72   72   73 1   
    73   72   76 1   
    74   73   74 1   
    75   73   77 1   
    76   73   78 1   
    77   74   75 2   
    78   74   79 1   
    79   79   80 1   
    80   79   86 1   
    81   80   81 1   
    82   80   83 1   
    83   80   87 1   
    84   81   82 2   
    85   81   93 1   
    86   83   84 1   
    87   83   85 1   
    88   83   88 1   
    89   84   90 1   
    90   84   91 1   
    91   84   92 1   
    92   85   89 1   
    93   93   94 1   
    94   93  101 1   
    95   94   95 1   
    96   94   97 1   
    97   94  102 1   
    98   95   96 2   
    99   95  112 1   
   100   97   98 1   
   101   97   99 1   
   102   97  103 1   
   103   98  100 1   
   104   98  104 1   
   105   98  105 1   
   106   99  106 1   
   107   99  107 1   
   108   99  108 1   
   109  100  109 1   
   110  100  110 1   
   111  100  111 1   
   112  112  113 1   
   113  112  119 1   
   114  113  114 1   
   115  113  116 1   
   116  113  120 1   
   117  114  115 2   
   118  114  126 1   
   119  116  117 1   
   120  116  118 1   
   121  116  121 1   
   122  117  123 1   
   123  117  124 1   
   124  117  125 1   
   125  118  122 1   
   126  126  127 1   
   127  126  133 1   
   128  127  128 1   
   129  127  130 1   
   130  127  134 1   
   131  128  129 2   
   132  128  140 1   
   133  130  131 1   
   134  130  132 1   
   135  130  135 1   
   136  131  137 1   
   137  131  138 1   
   138  131  139 1   
   139  132  136 1   
   140  140  141 1   
   141  140  149 1   
   142  141  142 1   
   143  141  144 1   
   144  141  150 1   
   145  142  143 2   
   146  142  162 1   
   147  144  145 1   
   148  144  151 1   
   149  144  152 1   
   150  145  146 1   
   151  145  153 1   
   152  145  154 1   
   153  146  147 1   
   154  146  155 1   
   155  146  156 1   
   156  147  148 1   
   157  147  157 1   
   158  147  158 1   
   159  148  159 1   
   160  148  160 1   
   161  148  161 1   
   162  162  163 1   
   163  162  171 1   
   164  163  164 1   
   165  163  166 1   
   166  163  172 1   
   167  164  165 2   
   168  164  177 1   
   169  166  167 1   
   170  166  173 1   
   171  166  174 1   
   172  167  168 1   
   173  167  175 1   
   174  167  176 1   
   175  168  169 1   
   176  168  170 1   
   177  177  178 1   
   178  177  182 1   
   179  178  179 1   
   180  178  180 1   
   181  178  181 1   
   182  184  185 1   
   183  184  186 1   
   184  187  188 1   
   185  187  189 1   
@<TRIPOS>SUBSTRUCTURE
     1 MOL         1 TEMP              0 ****  ****    0 ROOT
