@<TRIPOS>MOLECULE
MOL
  189   185     1     0     0
SMALL
resp


@<TRIPOS>ATOM
      1 C1          0.1650   -3.3330    6.4120 c3        1 MOL     -0.438309
      2 C2          0.7220   -2.8510    5.0140 c         1 MOL      0.746190
      3 O1          0.5270   -1.7070    4.5660 o         1 MOL     -0.592245
      4 H1         -0.5130   -4.1740    6.2620 hc        1 MOL      0.114971
      5 H2          0.9940   -3.6440    7.0470 hc        1 MOL      0.114971
      6 H3         -0.3740   -2.5150    6.8910 hc        1 MOL      0.114971
      7 N1          1.3080   -3.7900    4.2870 n         1 MOL     -0.607467
      8 C3          2.1240   -3.5080    3.0510 c3        1 MOL      0.113713
      9 C4          2.2230   -4.6760    1.9820 c         1 MOL      0.479554
     10 O2          2.6790   -5.7320    2.3470 o         1 MOL     -0.551481
     11 C5          3.5530   -3.0430    3.5140 c3        1 MOL     -0.199586
     12 C6          4.2870   -2.3220    2.4030 c         1 MOL      0.789397
     13 O3          5.3440   -1.7310    2.8030 o         1 MOL     -0.699769
     14 O4          3.8620   -2.1730    1.2240 o         1 MOL     -0.699769
     15 H4          1.4790   -4.7120    4.6490 hn        1 MOL      0.319544
     16 H5          1.6390   -2.6910    2.5170 h1        1 MOL      0.125241
     17 H6          4.2080   -3.8640    3.8160 hc        1 MOL      0.046013
     18 H7          3.4650   -2.3380    4.3430 hc        1 MOL      0.046013
     19 N2          1.9050   -4.4100    0.6820 n         1 MOL     -0.193229
     20 C7          1.9360   -5.3630   -0.4130 c3        1 MOL     -0.086141
     21 C8          3.1880   -5.3640   -1.3090 c         1 MOL      0.450896
     22 O5          3.4210   -6.2360   -2.1520 o         1 MOL     -0.580136
     23 C9          0.6630   -5.3000   -1.3340 c3        1 MOL      0.261129
     24 C10         0.7270   -4.1600   -2.3640 c3        1 MOL      0.035398
     25 C11        -0.6220   -5.2310   -0.4720 c3        1 MOL     -0.350831
     26 C12        -0.6020   -3.9350   -3.2040 c3        1 MOL     -0.215872
     27 H8          1.5560   -3.4730    0.5320 hn        1 MOL      0.113554
     28 H9          1.9890   -6.3730   -0.0130 h1        1 MOL      0.075252
     29 H10         0.6190   -6.2440   -1.8890 hc        1 MOL     -0.062524
     30 H11         1.4810   -4.3670   -3.1260 hc        1 MOL      0.072016
     31 H12         1.0480   -3.2120   -1.9420 hc        1 MOL      0.072016
     32 H13        -0.4800   -5.8900    0.3920 hc        1 MOL      0.077553
     33 H14        -0.8490   -4.1840   -0.2790 hc        1 MOL      0.077553
     34 H15        -1.4710   -5.6610   -1.0050 hc        1 MOL      0.077553
     35 H16        -1.4780   -4.1410   -2.5880 hc        1 MOL      0.051093
     36 H17        -0.4740   -2.9940   -3.7420 hc        1 MOL      0.051093
     37 H18        -0.6370   -4.6750   -4.0030 hc        1 MOL      0.051093
     38 N3          3.9540   -4.2800   -1.2920 n         1 MOL     -0.297780
     39 C13         5.0160   -3.8720   -2.3160 c3        1 MOL     -0.145958
     40 C14         6.2390   -3.1690   -1.6880 c         1 MOL      0.511949
     41 O6          7.3100   -3.0910   -2.3680 o         1 MOL     -0.557107
     42 C15         4.3720   -3.0200   -3.4670 c3        1 MOL     -0.124067
     43 C16         3.3020   -2.0290   -3.0590 c         1 MOL      0.653784
     44 O7          3.2660   -1.4720   -1.9640 o         1 MOL     -0.705939
     45 O8          2.3580   -1.9480   -3.9120 o         1 MOL     -0.705939
     46 H19         3.6100   -3.6420   -0.5860 hn        1 MOL      0.207393
     47 H20         5.4710   -4.7370   -2.8030 h1        1 MOL      0.146107
     48 H21         3.8190   -3.7020   -4.1210 hc        1 MOL      0.048007
     49 H22         5.1900   -2.5160   -3.9770 hc        1 MOL      0.048007
     50 N4          6.1530   -2.8360   -0.3980 n         1 MOL     -0.292883
     51 C17         7.3110   -2.3720    0.3300 c3        1 MOL     -0.083893
     52 C18         7.8230   -0.9990   -0.2620 c         1 MOL      0.420273
     53 O9          9.0100   -0.6860   -0.2000 o         1 MOL     -0.596057
     54 H23         5.2210   -2.6520   -0.0600 hn        1 MOL      0.169781
     55 H24         8.0620   -3.1490    0.1660 h1        1 MOL      0.083034
     56 H25         7.1810   -2.2230    1.4070 h1        1 MOL      0.083034
     57 N5          6.9100   -0.2390   -0.8060 n         1 MOL     -0.056449
     58 C19         7.2550    0.8650   -1.6790 c3        1 MOL     -0.041587
     59 C20         7.2590    2.2230   -0.9380 c         1 MOL      0.400359
     60 O10         7.6650    3.2700   -1.4750 o         1 MOL     -0.539328
     61 C21         6.2620    0.9110   -2.8130 c3        1 MOL     -0.276661
     62 C22         4.8050    1.3420   -2.5170 c         1 MOL      0.788781
     63 O11         4.4450    1.1660   -1.3030 o         1 MOL     -0.668012
     64 O12         4.0950    1.9190   -3.3310 o         1 MOL     -0.668012
     65 H26         5.9320   -0.4220   -0.7080 hn        1 MOL      0.153165
     66 H27         8.2260    0.6710   -2.1380 h1        1 MOL      0.123993
     67 H28         6.2700   -0.1170   -3.1610 hc        1 MOL      0.063694
     68 H29         6.6330    1.6050   -3.5740 hc        1 MOL      0.063694
     69 N6          6.8440    2.2680    0.3300 n         1 MOL     -0.260627
     70 C23         6.9130    3.4840    1.1810 c3        1 MOL     -0.231972
     71 C24         5.6780    4.3150    1.3160 c         1 MOL      0.473511
     72 O13         5.7510    5.3660    1.9620 o         1 MOL     -0.577696
     73 H30         6.5250    1.4670    0.8510 hn        1 MOL      0.241491
     74 H31         7.7840    4.0140    0.8010 h1        1 MOL      0.120146
     75 H32         7.1230    3.1390    2.1920 h1        1 MOL      0.120146
     76 N7          4.6030    3.9480    0.6060 n         1 MOL     -0.128391
     77 C25         3.3350    4.5900    0.5940 c3        1 MOL      0.073455
     78 C26         2.1890    3.7180    1.0390 c         1 MOL      0.266347
     79 O14         2.3600    2.4810    1.0800 o         1 MOL     -0.503040
     80 C27         3.2070    5.1510   -0.8300 c3        1 MOL     -0.093900
     81 C28         4.2070    6.2820   -1.1410 c3        1 MOL     -0.225564
     82 C29         3.6390    7.1560   -2.1570 c         1 MOL      0.717486
     83 N8          3.5650    6.6260   -3.3730 n         1 MOL     -0.851244
     84 O15         3.4090    8.3070   -1.9360 o         1 MOL     -0.596106
     85 H33         4.7000    3.1500   -0.0100 hn        1 MOL      0.234931
     86 H34         3.4650    5.3520    1.3620 h1        1 MOL      0.031049
     87 H35         2.2050    5.5330   -0.9960 hc        1 MOL      0.055471
     88 H36         3.3120    4.2000   -1.3550 hc        1 MOL      0.055471
     89 H37         5.1640    5.8360   -1.4140 hc        1 MOL      0.084029
     90 H38         4.2780    6.8420   -0.2070 hc        1 MOL      0.084029
     91 H39         3.8220    5.6560   -3.4840 hn        1 MOL      0.375493
     92 H40         3.2850    7.2040   -4.1590 hn        1 MOL      0.375493
     93 N9          0.9570    4.2760    1.1010 n         1 MOL     -0.216977
     94 C30        -0.2460    3.4870    1.2630 c3        1 MOL      0.055208
     95 C31        -1.2620    3.6220    0.1340 c         1 MOL      0.310258
     96 O16        -1.6090    4.7450   -0.3100 o         1 MOL     -0.562744
     97 C32        -0.9220    3.9080    2.6520 c3        1 MOL      0.298614
     98 C33        -1.8200    2.7740    3.1960 c3        1 MOL     -0.434737
     99 C34         0.1060    4.2020    3.7270 c3        1 MOL     -0.434737
    100 H41         0.8660    5.2740    0.9010 hn        1 MOL      0.231407
    101 H42         0.0900    2.4530    1.3620 h1        1 MOL      0.094068
    102 H43        -1.5270    4.7960    2.4790 hc        1 MOL     -0.029838
    103 H44        -1.1880    1.9490    3.5340 hc        1 MOL      0.098567
    104 H45        -2.4540    3.0760    4.0290 hc        1 MOL      0.098567
    105 H46        -2.3780    2.3570    2.3640 hc        1 MOL      0.098567
    106 H47         0.6680    3.3040    3.9930 hc        1 MOL      0.098567
    107 H48         0.6820    5.0750    3.4390 hc        1 MOL      0.098567
    108 H49        -0.4150    4.4390    4.6500 hc        1 MOL      0.098567
    109 N10        -1.7990    2.4890   -0.3140 n         1 MOL     -0.090166
    110 C35        -2.8700    2.5020   -1.3610 c3        1 MOL      0.009188
    111 C36        -4.2290    2.3560   -0.6640 c         1 MOL      0.491971
    112 O17        -4.2190    1.9670    0.5240 o         1 MOL     -0.427563
    113 C37        -2.6220    1.5330   -2.4740 c3        1 MOL     -0.191607
    114 C38        -3.0190    0.0970   -2.2420 c         1 MOL      0.640323
    115 N11        -2.0420   -0.7600   -1.8880 n         1 MOL     -0.726891
    116 O18        -4.1630   -0.3330   -2.4190 o         1 MOL     -0.530171
    117 H50        -1.3780    1.6410    0.0330 hn        1 MOL      0.230002
    118 H51        -2.9320    3.4700   -1.8720 h1        1 MOL      0.086031
    119 H52        -1.5760    1.6010   -2.7870 hc        1 MOL      0.078072
    120 H53        -3.2540    1.7760   -3.3220 hc        1 MOL      0.078072
    121 H54        -1.0900   -0.4490   -1.7450 hn        1 MOL      0.345812
    122 H55        -2.2720   -1.7280   -1.7630 hn        1 MOL      0.345812
    123 N12        -5.3520    2.3920   -1.4210 n         1 MOL     -0.595842
    124 C39        -6.7030    2.1730   -0.7950 c3        1 MOL      0.268218
    125 C40        -6.9330    0.8070   -0.1200 c         1 MOL      0.123776
    126 O19        -7.5100    0.8110    0.9610 o         1 MOL     -0.501011
    127 C41        -7.7400    2.3170   -1.9050 c3        1 MOL     -0.123122
    128 C42        -9.1210    1.9880   -1.3600 ca        1 MOL     -0.022076
    129 C43       -10.0310    2.9210   -0.6960 ca        1 MOL     -0.108689
    130 C44        -9.6030    0.6700   -1.5730 ca        1 MOL     -0.108689
    131 C45       -11.2560    2.5750   -0.1870 ca        1 MOL     -0.322665
    132 C46       -10.8740    0.2520   -1.0850 ca        1 MOL     -0.322665
    133 C47       -11.6430    1.2150   -0.3720 ca        1 MOL      0.439549
    134 O20       -12.9750    0.8320   -0.1400 oh        1 MOL     -0.572625
    135 H56        -5.3640    2.8050   -2.3340 hn        1 MOL      0.327150
    136 H57        -6.9300    3.0220   -0.1490 h1        1 MOL      0.060138
    137 H58        -7.4950    1.6200   -2.7090 hc        1 MOL      0.044094
    138 H59        -7.7270    3.3340   -2.3060 hc        1 MOL      0.044094
    139 H60        -9.6710    3.9330   -0.5250 ha        1 MOL      0.115349
    140 H61        -8.9980   -0.0220   -2.1420 ha        1 MOL      0.115349
    141 H62       -11.8000    3.3260    0.3730 ha        1 MOL      0.171056
    142 H63       -11.2130   -0.7800   -1.2020 ha        1 MOL      0.171056
    143 H64       -13.1150   -0.0050   -0.5760 ho        1 MOL      0.373182
    144 N13        -6.4050   -0.2650   -0.6310 n         1 MOL      0.386099
    145 C48        -6.5620   -1.5950   -0.0650 c3        1 MOL     -0.033430
    146 C49        -5.5930   -1.8660    1.1100 c         1 MOL      0.253159
    147 O21        -5.7720   -2.8040    1.9250 o         1 MOL     -0.511241
    148 C50        -6.3470   -2.6960   -1.1140 c3        1 MOL      0.218284
    149 C51        -7.3100   -2.7110   -2.2680 c3        1 MOL     -0.246426
    150 C52        -7.0120   -3.7030   -3.3720 c         1 MOL      0.730612
    151 O22        -7.1590   -3.3710   -4.5610 o         1 MOL     -0.743882
    152 O23        -6.5940   -4.8290   -3.0790 o         1 MOL     -0.743882
    153 H65        -5.9040   -0.2100   -1.5130 hn        1 MOL      0.085214
    154 H66        -7.5870   -1.7580    0.2830 h1        1 MOL      0.044109
    155 H67        -6.4150   -3.6620   -0.6190 hc        1 MOL     -0.015233
    156 H68        -5.3640   -2.8100   -1.5600 hc        1 MOL     -0.015233
    157 H69        -7.3770   -1.7190   -2.7310 hc        1 MOL     -0.009437
    158 H70        -8.2850   -2.9600   -1.8530 hc        1 MOL     -0.009437
    159 N14        -4.5960   -1.0160    1.2170 n         1 MOL     -0.000031
    160 C53        -3.5940   -0.9930    2.3520 c3        1 MOL      0.111466
    161 C54        -4.1270   -0.1080    3.5200 c         1 MOL      0.356638
    162 O24        -4.2330   -0.5200    4.6800 o         1 MOL     -0.555372
    163 C55        -2.3170   -0.5230    1.7390 c3        1 MOL      0.094677
    164 C56        -1.3800   -1.5920    1.3370 c3        1 MOL     -0.070688
    165 C57        -0.2160   -1.0870    0.6910 c         1 MOL      1.233454
    166 O25         0.7270   -1.8690    0.3560 o         1 MOL     -0.994011
    167 O26        -0.0360    0.1630    0.4330 o         1 MOL     -0.994011
    168 H71        -4.6010   -0.2720    0.5340 hn        1 MOL     -0.310642
    169 H72        -3.5420   -1.9820    2.8220 h1        1 MOL      0.049200
    170 H73        -1.7640   -0.0260    2.5380 hc        1 MOL     -0.004346
    171 H74        -2.5350    0.1820    0.9410 hc        1 MOL     -0.004346
    172 H75        -1.8970   -2.2390    0.6170 hc        1 MOL     -0.017537
    173 H76        -1.0630   -2.2070    2.1770 hc        1 MOL     -0.017537
    174 N15        -4.7440    1.0230    3.1500 n         1 MOL      0.006985
    175 C58        -5.4370    1.9040    4.0350 c3        1 MOL     -0.204406
    176 H77        -6.3630    2.2360    3.5640 h1        1 MOL      0.067893
    177 H78        -5.6700    1.3810    4.9630 h1        1 MOL      0.067893
    178 H79        -4.8100    2.7690    4.2520 h1        1 MOL      0.067893
    179 H80        -4.4520    1.3240    2.2300 hn        1 MOL      0.152544
    180 Ca1         2.5980   -0.0860    0.1710 Ca        1 MOL      1.715823
    181 O27         1.8420   -0.2240    2.9040 oh        1 MOL     -0.823011
    182 H81         2.1930    0.5030    3.4250 ho        1 MOL      0.377829
    183 H82         1.5660   -0.8720    3.5530 ho        1 MOL      0.377829
    184 O28         1.7470    1.8550   -1.7590 oh        1 MOL     -0.823011
    185 H83         1.1820    1.3290   -2.3210 ho        1 MOL      0.377829
    186 H84         2.5330    1.9990   -2.2880 ho        1 MOL      0.377829
    187 O29         4.7140    0.7800    1.9390 oh        1 MOL     -0.823011
    188 H85         5.0830   -0.0260    2.2920 ho        1 MOL      0.377829
    189 H86         4.2350    1.1600    2.6760 ho        1 MOL      0.377829
@<TRIPOS>BOND
     1    1    2 1   
     2    1    4 1   
     3    1    5 1   
     4    1    6 1   
     5    2    3 2   
     6    2    7 1   
     7    7    8 1   
     8    7   15 1   
     9    8    9 1   
    10    8   11 1   
    11    8   16 1   
    12    9   10 2   
    13    9   19 1   
    14   11   12 1   
    15   11   17 1   
    16   11   18 1   
    17   12   13 1   
    18   12   14 1   
    19   19   20 1   
    20   19   27 1   
    21   20   21 1   
    22   20   23 1   
    23   20   28 1   
    24   21   22 2   
    25   21   38 1   
    26   23   24 1   
    27   23   25 1   
    28   23   29 1   
    29   24   26 1   
    30   24   30 1   
    31   24   31 1   
    32   25   32 1   
    33   25   33 1   
    34   25   34 1   
    35   26   35 1   
    36   26   36 1   
    37   26   37 1   
    38   38   39 1   
    39   38   46 1   
    40   39   40 1   
    41   39   42 1   
    42   39   47 1   
    43   40   41 2   
    44   40   50 1   
    45   42   43 1   
    46   42   48 1   
    47   42   49 1   
    48   43   44 1   
    49   43   45 1   
    50   50   51 1   
    51   50   54 1   
    52   51   52 1   
    53   51   55 1   
    54   51   56 1   
    55   52   53 2   
    56   52   57 1   
    57   57   58 1   
    58   57   65 1   
    59   58   59 1   
    60   58   61 1   
    61   58   66 1   
    62   59   60 2   
    63   59   69 1   
    64   61   62 1   
    65   61   67 1   
    66   61   68 1   
    67   62   63 1   
    68   62   64 1   
    69   69   70 1   
    70   69   73 1   
    71   70   71 1   
    72   70   74 1   
    73   70   75 1   
    74   71   72 2   
    75   71   76 1   
    76   76   77 1   
    77   76   85 1   
    78   77   78 1   
    79   77   80 1   
    80   77   86 1   
    81   78   79 2   
    82   78   93 1   
    83   80   81 1   
    84   80   87 1   
    85   80   88 1   
    86   81   82 1   
    87   81   89 1   
    88   81   90 1   
    89   82   83 1   
    90   82   84 2   
    91   83   91 1   
    92   83   92 1   
    93   93   94 1   
    94   93  100 1   
    95   94   95 1   
    96   94   97 1   
    97   94  101 1   
    98   95   96 2   
    99   95  109 1   
   100   97   98 1   
   101   97   99 1   
   102   97  102 1   
   103   98  103 1   
   104   98  104 1   
   105   98  105 1   
   106   99  106 1   
   107   99  107 1   
   108   99  108 1   
   109  109  110 1   
   110  109  117 1   
   111  110  111 1   
   112  110  113 1   
   113  110  118 1   
   114  111  112 2   
   115  111  123 1   
   116  113  114 1   
   117  113  119 1   
   118  113  120 1   
   119  114  115 1   
   120  114  116 2   
   121  115  121 1   
   122  115  122 1   
   123  123  124 1   
   124  123  135 1   
   125  124  125 1   
   126  124  127 1   
   127  124  136 1   
   128  125  126 2   
   129  125  144 1   
   130  127  128 1   
   131  127  137 1   
   132  127  138 1   
   133  128  129 ar  
   134  128  130 ar  
   135  129  131 ar  
   136  129  139 1   
   137  130  132 ar  
   138  130  140 1   
   139  131  133 ar  
   140  131  141 1   
   141  132  133 ar  
   142  132  142 1   
   143  133  134 1   
   144  134  143 1   
   145  144  145 1   
   146  144  153 1   
   147  145  146 1   
   148  145  148 1   
   149  145  154 1   
   150  146  147 2   
   151  146  159 1   
   152  148  149 1   
   153  148  155 1   
   154  148  156 1   
   155  149  150 1   
   156  149  157 1   
   157  149  158 1   
   158  150  151 1   
   159  150  152 1   
   160  159  160 1   
   161  159  168 1   
   162  160  161 1   
   163  160  163 1   
   164  160  169 1   
   165  161  162 2   
   166  161  174 1   
   167  163  164 1   
   168  163  170 1   
   169  163  171 1   
   170  164  165 1   
   171  164  172 1   
   172  164  173 1   
   173  165  166 1   
   174  165  167 1   
   175  174  175 1   
   176  174  179 1   
   177  175  176 1   
   178  175  177 1   
   179  175  178 1   
   180  181  182 1   
   181  181  183 1   
   182  184  185 1   
   183  184  186 1   
   184  187  188 1   
   185  187  189 1   
@<TRIPOS>SUBSTRUCTURE
     1 MOL         1 TEMP              0 ****  ****    0 ROOT
