@<TRIPOS>MOLECULE
MOL
  176   174     1     0     0
SMALL
resp


@<TRIPOS>ATOM
      1 C1          0.8850    2.2190    6.5210 c3        1 MOL     -0.290810
      2 C2          0.4860    2.1290    5.0100 c         1 MOL      0.724260
      3 O1          1.3740    1.9020    4.1870 o         1 MOL     -0.586851
      4 H1          0.1230    2.7780    7.0650 hc        1 MOL      0.074964
      5 H2          0.9640    1.2150    6.9380 hc        1 MOL      0.074964
      6 H3          1.8440    2.7280    6.6150 hc        1 MOL      0.074964
      7 N1         -0.7960    2.0560    4.7100 n         1 MOL     -0.606285
      8 C3         -1.1830    1.9610    3.2710 c3        1 MOL      0.096594
      9 C4         -1.1990    3.3370    2.5320 c         1 MOL      0.486205
     10 O2         -1.7390    4.2670    3.1000 o         1 MOL     -0.553428
     11 C5         -2.5070    1.1310    3.1530 c3        1 MOL     -0.084699
     12 C6         -2.8500    0.7130    1.7260 c         1 MOL      0.505500
     13 O3         -3.0840   -0.4910    1.4860 o         1 MOL     -0.557010
     14 O4         -2.7950    1.5350    0.7590 o         1 MOL     -0.557010
     15 H4         -1.4820    2.1900    5.4330 hn        1 MOL      0.341016
     16 H5         -0.3970    1.4230    2.7490 h1        1 MOL      0.072079
     17 H6         -3.2980    1.7790    3.5480 hc        1 MOL      0.042555
     18 H7         -2.4700    0.2650    3.8140 hc        1 MOL      0.042555
     19 N2         -0.6990    3.5930    1.3270 n         1 MOL     -0.086088
     20 C7         -0.4710    4.9190    0.6320 c3        1 MOL     -0.275860
     21 C8         -1.6500    5.2560   -0.2980 c         1 MOL      0.696676
     22 O5         -1.6820    6.2650   -0.9270 o         1 MOL     -0.629304
     23 C9          0.8920    4.8140   -0.0800 c3        1 MOL      0.154606
     24 C10         1.3620    6.0130   -0.9800 c3        1 MOL     -0.234333
     25 C11         2.6900    5.6840   -1.6830 c3        1 MOL     -0.001461
     26 C12         2.9260    6.6990   -2.8700 c3        1 MOL     -0.097467
     27 N3          3.4210    6.0330   -4.0210 n4        1 MOL     -0.342545
     28 H8         -0.1560    2.9140    0.8190 hn        1 MOL      0.030656
     29 H9         -0.5610    5.7140    1.3840 h1        1 MOL      0.124818
     30 H10         0.8700    3.9830   -0.7770 hc        1 MOL      0.066830
     31 H11         1.5870    4.6900    0.7530 hc        1 MOL      0.066830
     32 H12         1.4850    6.9070   -0.3570 hc        1 MOL      0.086225
     33 H13         0.6460    6.1780   -1.7840 hc        1 MOL      0.086225
     34 H14         2.7340    4.6620   -2.0550 hc        1 MOL      0.059857
     35 H15         3.4270    5.8530   -0.9000 hc        1 MOL      0.059857
     36 H16         3.6490    7.3820   -2.4370 hx        1 MOL      0.121361
     37 H17         1.9170    7.0940   -3.0200 hx        1 MOL      0.121361
     38 H18         2.5760    5.6190   -4.3930 hn        1 MOL      0.335679
     39 H19         3.9260    6.5600   -4.7150 hn        1 MOL      0.335679
     40 H20         4.0310    5.2760   -3.7250 hn        1 MOL      0.335679
     41 N4         -2.5120    4.3000   -0.4360 n         1 MOL     -0.334057
     42 C13        -3.5610    4.3250   -1.4840 c3        1 MOL     -0.041962
     43 C14        -4.9350    3.8660   -0.8610 c         1 MOL      0.458319
     44 O6         -5.9640    4.0760   -1.4430 o         1 MOL     -0.509859
     45 C15        -3.0050    3.6260   -2.7280 c3        1 MOL     -0.197045
     46 C16        -2.8100    2.2090   -2.6900 c         1 MOL      0.786798
     47 O7         -3.7150    1.4190   -2.3660 o         1 MOL     -0.744243
     48 O8         -1.7000    1.7460   -2.9820 o         1 MOL     -0.744243
     49 H21        -2.4380    3.6320    0.3160 hn        1 MOL      0.035371
     50 H22        -3.7110    5.3150   -1.9010 h1        1 MOL      0.132068
     51 H23        -2.0670    4.1670   -2.9180 hc        1 MOL      0.056389
     52 H24        -3.6950    3.8930   -3.5290 hc        1 MOL      0.056389
     53 N5         -4.8770    3.2740    0.3470 n         1 MOL     -0.277486
     54 C17        -6.0710    2.7420    1.1220 c3        1 MOL     -0.326025
     55 C18        -6.8550    1.5520    0.5200 c         1 MOL      0.533038
     56 O9         -7.9890    1.3380    1.0570 o         1 MOL     -0.551843
     57 H25        -3.9820    3.0970    0.7680 hn        1 MOL      0.295904
     58 H26        -6.8240    3.5380    1.1240 h1        1 MOL      0.153067
     59 H27        -5.7880    2.4540    2.1380 h1        1 MOL      0.153067
     60 N6         -6.3170    0.7400   -0.3980 n         1 MOL     -0.240552
     61 C19        -6.9650   -0.4140   -0.8900 c3        1 MOL     -0.023850
     62 C20        -6.9610   -1.6420    0.0770 c         1 MOL      0.505293
     63 O10        -7.9290   -2.3910    0.0420 o         1 MOL     -0.551622
     64 C21        -6.3960   -0.7610   -2.2850 c3        1 MOL     -0.122016
     65 C22        -4.9910   -1.3200   -2.3330 c         1 MOL      0.579853
     66 N7         -4.7080   -2.0790   -3.4000 n         1 MOL     -0.632480
     67 O11        -4.1540   -1.2670   -1.4230 o         1 MOL     -0.577365
     68 H28        -5.4420    1.0360   -0.8080 hn        1 MOL      0.236665
     69 H29        -8.0440   -0.2730   -1.0110 h1        1 MOL      0.088902
     70 H30        -6.5420   -0.0000   -3.0430 hc        1 MOL      0.066514
     71 H31        -6.9990   -1.5890   -2.6540 hc        1 MOL      0.066514
     72 H32        -5.3390   -2.1050   -4.1870 hn        1 MOL      0.308031
     73 H33        -3.8340   -2.5500   -3.5470 hn        1 MOL      0.308031
     74 N8         -5.9370   -1.7890    0.8900 n         1 MOL     -0.219609
     75 C23        -5.9540   -2.8420    1.8550 c3        1 MOL     -0.015436
     76 C24        -4.6840   -3.6830    1.7800 c         1 MOL      0.502306
     77 O12        -4.8680   -4.7680    2.3380 o         1 MOL     -0.557322
     78 H34        -5.0500   -1.3370    0.7410 hn        1 MOL      0.095193
     79 H35        -6.7870   -3.5460    1.7640 h1        1 MOL      0.073546
     80 H36        -5.9890   -2.4330    2.8630 h1        1 MOL      0.073546
     81 N9         -3.5610   -3.2300    1.1870 n         1 MOL     -0.218313
     82 C25        -2.2780   -3.9840    1.3660 c3        1 MOL      0.022989
     83 C26        -1.0740   -3.0920    1.2590 c         1 MOL      0.406504
     84 O13        -0.9730   -2.1330    0.4710 o         1 MOL     -0.542722
     85 C27        -2.1130   -5.2720    0.5340 c3        1 MOL     -0.314935
     86 C28        -1.9960   -4.9780   -0.9590 ca        1 MOL      0.066214
     87 C29        -0.7220   -4.5960   -1.4730 ca        1 MOL     -0.077877
     88 C30        -3.0610   -5.0850   -1.8450 ca        1 MOL     -0.077877
     89 C31        -0.5600   -4.4230   -2.8570 ca        1 MOL     -0.354042
     90 C32        -2.8920   -4.9400   -3.2190 ca        1 MOL     -0.354042
     91 C33        -1.6790   -4.5270   -3.7400 ca        1 MOL      0.401005
     92 O14        -1.5870   -4.2740   -5.0960 oh        1 MOL     -0.554676
     93 H37        -3.4300   -2.2690    0.8950 hn        1 MOL      0.117865
     94 H38        -2.3860   -4.4050    2.3640 h1        1 MOL      0.067903
     95 H39        -2.9540   -5.9620    0.6770 hc        1 MOL      0.135362
     96 H40        -1.2050   -5.8440    0.7100 hc        1 MOL      0.135362
     97 H41         0.1600   -4.4550   -0.8680 ha        1 MOL      0.133598
     98 H42        -4.0800   -5.1740   -1.4930 ha        1 MOL      0.133598
     99 H43         0.3630   -4.0020   -3.2310 ha        1 MOL      0.175221
    100 H44        -3.8060   -5.0540   -3.7890 ha        1 MOL      0.175221
    101 H45        -0.7470   -4.0820   -5.5270 ho        1 MOL      0.388033
    102 N10        -0.0490   -3.4310    2.0290 n         1 MOL     -0.254411
    103 C34         1.3010   -2.8170    1.9720 c3        1 MOL     -0.202295
    104 C35         2.1590   -3.5840    0.9230 c         1 MOL      0.424611
    105 O15         2.2620   -4.8230    0.9910 o         1 MOL     -0.520004
    106 C36         2.0510   -2.8640    3.3610 c3        1 MOL      0.234423
    107 C37         1.0890   -2.3510    4.4650 c3        1 MOL      0.040258
    108 C38         3.3520   -2.0490    3.2470 c3        1 MOL     -0.389503
    109 C39         1.6210   -2.7930    5.8500 c3        1 MOL     -0.268953
    110 H46        -0.1560   -4.3370    2.4620 hn        1 MOL      0.267326
    111 H47         1.2300   -1.7650    1.7120 h1        1 MOL      0.156555
    112 H48         2.3130   -3.9010    3.5620 hc        1 MOL      0.000996
    113 H49         0.1340   -2.8070    4.2040 hc        1 MOL      0.011712
    114 H50         0.9520   -1.2700    4.4340 hc        1 MOL      0.011712
    115 H51         4.0050   -2.4140    2.4550 hc        1 MOL      0.096624
    116 H52         3.1210   -1.0010    3.0630 hc        1 MOL      0.096624
    117 H53         3.8390   -2.0870    4.2160 hc        1 MOL      0.096624
    118 H54         1.8050   -3.8700    5.8810 hc        1 MOL      0.067873
    119 H55         2.6190   -2.3590    5.9490 hc        1 MOL      0.067873
    120 H56         0.9470   -2.4640    6.6430 hc        1 MOL      0.067873
    121 N11         2.7030   -2.8790   -0.0900 n         1 MOL     -0.208715
    122 C40         3.8460   -3.2970   -0.8980 c3        1 MOL      0.072175
    123 C41         5.1220   -2.7240   -0.4740 c         1 MOL      0.548011
    124 O16         5.2300   -1.7220    0.2480 o         1 MOL     -0.476010
    125 C42         3.6490   -2.9720   -2.3550 c3        1 MOL      0.055248
    126 O17         3.6910   -1.5810   -2.4920 oh        1 MOL     -0.419280
    127 H57         2.5180   -1.8860   -0.0700 hn        1 MOL      0.217798
    128 H58         4.0870   -4.3610   -0.8290 h1        1 MOL      0.043898
    129 H59         2.6650   -3.3260   -2.6770 h1        1 MOL      0.010407
    130 H60         4.4360   -3.3720   -2.9870 h1        1 MOL      0.010407
    131 H61         3.7420   -1.3260   -3.4190 ho        1 MOL      0.362542
    132 N12         6.2540   -3.2830   -0.9800 n         1 MOL     -0.518514
    133 C43         7.5730   -2.7220   -0.5650 c3        1 MOL      0.198409
    134 C44         7.8340   -1.2070   -0.7350 c         1 MOL      0.466370
    135 O18         8.3950   -0.6230    0.1680 o         1 MOL     -0.515062
    136 C45         8.6560   -3.5190   -1.3080 c3        1 MOL     -0.357997
    137 H62         6.1810   -4.0530   -1.6250 hn        1 MOL      0.305596
    138 H63         7.6750   -3.0170    0.4810 h1        1 MOL      0.071534
    139 H64         8.6150   -3.4460   -2.3900 hc        1 MOL      0.106315
    140 H65         9.6360   -3.2000   -0.9500 hc        1 MOL      0.106315
    141 H66         8.5400   -4.5870   -1.0820 hc        1 MOL      0.106315
    142 N13         7.3860   -0.6370   -1.8250 n         1 MOL     -0.447280
    143 C46         7.4070    0.7690   -2.1520 c3        1 MOL      0.356985
    144 C47         6.5460    1.5960   -1.2490 c         1 MOL      0.244616
    145 O19         6.7860    2.7850   -1.0660 o         1 MOL     -0.533661
    146 C48         6.8970    0.7850   -3.5520 c3        1 MOL     -0.337258
    147 H67         6.9540   -1.2320   -2.5230 hn        1 MOL      0.233420
    148 H68         8.4020    1.2060   -2.1730 h1        1 MOL      0.046234
    149 H69         5.8470    0.5000   -3.5260 hc        1 MOL      0.084732
    150 H70         7.0650    1.7960   -3.9430 hc        1 MOL      0.084732
    151 H71         7.5520    0.1210   -4.1030 hc        1 MOL      0.084732
    152 N14         5.4960    1.0500   -0.6520 n         1 MOL      0.015863
    153 C49         4.6490    1.7460    0.3420 c3        1 MOL     -0.045657
    154 C50         5.1990    1.7040    1.7580 c         1 MOL      0.497921
    155 O20         4.9290    2.5800    2.6230 o         1 MOL     -0.560054
    156 C51         3.1540    1.1770    0.4310 c3        1 MOL     -0.013312
    157 C52         2.5120    1.4170   -0.9670 c3        1 MOL     -0.059019
    158 C53         1.0560    0.7910   -0.9700 c         1 MOL      0.608175
    159 O21         0.2420    0.9570   -0.0000 o         1 MOL     -0.733294
    160 O22         0.7180    0.0190   -1.9100 o         1 MOL     -0.733294
    161 H72         5.2370    0.1180   -0.9540 hn        1 MOL      0.012785
    162 H73         4.3820    2.7830    0.1650 h1        1 MOL     -0.001078
    163 H74         2.5840    1.6000    1.2570 hc        1 MOL      0.073693
    164 H75         3.2060    0.0900    0.5130 hc        1 MOL      0.073693
    165 H76         3.0460    1.0180   -1.8330 hc        1 MOL     -0.027324
    166 H77         2.3680    2.4790   -1.1150 hc        1 MOL     -0.027324
    167 N15         5.9280    0.6660    2.0500 n         1 MOL     -0.147994
    168 C54         6.5720    0.5730    3.3920 c3        1 MOL     -0.241839
    169 H78         7.6160    0.8770    3.3150 h1        1 MOL      0.104264
    170 H79         6.0540    1.2310    4.0900 h1        1 MOL      0.104264
    171 H80         6.5180   -0.4540    3.7510 h1        1 MOL      0.104264
    172 H81         6.0360   -0.0830    1.3750 hn        1 MOL      0.175743
    173 Ca1        -1.8500    0.0030   -0.9770 Ca        1 MOL      1.730455
    174 O23        -1.4330   -1.3410   -3.2520 oh        1 MOL     -0.770306
    175 H82        -0.6560   -1.8900   -3.3480 ho        1 MOL      0.386710
    176 H83        -1.4970   -0.8590   -4.0750 ho        1 MOL      0.386710
@<TRIPOS>BOND
     1    1    2 1   
     2    1    4 1   
     3    1    5 1   
     4    1    6 1   
     5    2    3 2   
     6    2    7 1   
     7    7    8 1   
     8    7   15 1   
     9    8    9 1   
    10    8   11 1   
    11    8   16 1   
    12    9   10 2   
    13    9   19 1   
    14   11   12 1   
    15   11   17 1   
    16   11   18 1   
    17   12   13 1   
    18   12   14 1   
    19   19   20 1   
    20   19   28 1   
    21   20   21 1   
    22   20   23 1   
    23   20   29 1   
    24   21   22 2   
    25   21   41 1   
    26   23   24 1   
    27   23   30 1   
    28   23   31 1   
    29   24   25 1   
    30   24   32 1   
    31   24   33 1   
    32   25   26 1   
    33   25   34 1   
    34   25   35 1   
    35   26   27 1   
    36   26   36 1   
    37   26   37 1   
    38   27   38 1   
    39   27   39 1   
    40   27   40 1   
    41   41   42 1   
    42   41   49 1   
    43   42   43 1   
    44   42   45 1   
    45   42   50 1   
    46   43   44 2   
    47   43   53 1   
    48   45   46 1   
    49   45   51 1   
    50   45   52 1   
    51   46   47 1   
    52   46   48 1   
    53   53   54 1   
    54   53   57 1   
    55   54   55 1   
    56   54   58 1   
    57   54   59 1   
    58   55   56 2   
    59   55   60 1   
    60   60   61 1   
    61   60   68 1   
    62   61   62 1   
    63   61   64 1   
    64   61   69 1   
    65   62   63 2   
    66   62   74 1   
    67   64   65 1   
    68   64   70 1   
    69   64   71 1   
    70   65   66 1   
    71   65   67 2   
    72   66   72 1   
    73   66   73 1   
    74   74   75 1   
    75   74   78 1   
    76   75   76 1   
    77   75   79 1   
    78   75   80 1   
    79   76   77 2   
    80   76   81 1   
    81   81   82 1   
    82   81   93 1   
    83   82   83 1   
    84   82   85 1   
    85   82   94 1   
    86   83   84 2   
    87   83  102 1   
    88   85   86 1   
    89   85   95 1   
    90   85   96 1   
    91   86   87 ar  
    92   86   88 ar  
    93   87   89 ar  
    94   87   97 1   
    95   88   90 ar  
    96   88   98 1   
    97   89   91 ar  
    98   89   99 1   
    99   90   91 ar  
   100   90  100 1   
   101   91   92 1   
   102   92  101 1   
   103  102  103 1   
   104  102  110 1   
   105  103  104 1   
   106  103  106 1   
   107  103  111 1   
   108  104  105 2   
   109  104  121 1   
   110  106  107 1   
   111  106  108 1   
   112  106  112 1   
   113  107  109 1   
   114  107  113 1   
   115  107  114 1   
   116  108  115 1   
   117  108  116 1   
   118  108  117 1   
   119  109  118 1   
   120  109  119 1   
   121  109  120 1   
   122  121  122 1   
   123  121  127 1   
   124  122  123 1   
   125  122  125 1   
   126  122  128 1   
   127  123  124 2   
   128  123  132 1   
   129  125  126 1   
   130  125  129 1   
   131  125  130 1   
   132  126  131 1   
   133  132  133 1   
   134  132  137 1   
   135  133  134 1   
   136  133  136 1   
   137  133  138 1   
   138  134  135 2   
   139  134  142 1   
   140  136  139 1   
   141  136  140 1   
   142  136  141 1   
   143  142  143 1   
   144  142  147 1   
   145  143  144 1   
   146  143  146 1   
   147  143  148 1   
   148  144  145 2   
   149  144  152 1   
   150  146  149 1   
   151  146  150 1   
   152  146  151 1   
   153  152  153 1   
   154  152  161 1   
   155  153  154 1   
   156  153  156 1   
   157  153  162 1   
   158  154  155 2   
   159  154  167 1   
   160  156  157 1   
   161  156  163 1   
   162  156  164 1   
   163  157  158 1   
   164  157  165 1   
   165  157  166 1   
   166  158  159 1   
   167  158  160 1   
   168  167  168 1   
   169  167  172 1   
   170  168  169 1   
   171  168  170 1   
   172  168  171 1   
   173  174  175 1   
   174  174  176 1   
@<TRIPOS>SUBSTRUCTURE
     1 MOL         1 TEMP              0 ****  ****    0 ROOT
