@<TRIPOS>MOLECULE
MOL
  179   176     1     0     0
SMALL
resp


@<TRIPOS>ATOM
      1 C1          1.5030    4.5610    4.4880 c3        1 MOL     -0.370493
      2 C2          0.8930    3.9210    3.2350 c         1 MOL      0.719449
      3 O1          1.5480    3.8430    2.2070 o         1 MOL     -0.549177
      4 H1          2.4100    5.1010    4.2150 hc        1 MOL      0.089729
      5 H2          0.7860    5.2540    4.9280 hc        1 MOL      0.089729
      6 H3          1.7480    3.7830    5.2120 hc        1 MOL      0.089729
      7 N1         -0.3520    3.4580    3.3220 n         1 MOL     -0.634266
      8 C3         -1.1450    3.0230    2.1360 c3        1 MOL     -0.004012
      9 C4         -1.7710    4.2580    1.5350 c         1 MOL      0.524940
     10 O2         -2.9830    4.5350    1.6370 o         1 MOL     -0.516729
     11 C5         -2.1430    2.0360    2.4580 c3        1 MOL     -0.001585
     12 C6         -2.7270    1.3190    1.2060 c         1 MOL      0.816484
     13 O3         -2.0950    1.4150    0.1130 o         1 MOL     -0.837976
     14 O4         -3.8000    0.6370    1.3450 o         1 MOL     -0.837976
     15 H4         -0.9020    3.3880    4.1740 hn        1 MOL      0.351909
     16 H5         -0.4690    2.5610    1.4330 h1        1 MOL      0.041769
     17 H6         -2.9080    2.4360    3.1200 hc        1 MOL      0.005035
     18 H7         -1.6320    1.2490    3.0130 hc        1 MOL      0.005035
     19 N2         -1.0160    4.9520    0.6710 n         1 MOL     -0.505363
     20 C7         -1.4310    6.2100    0.0130 c3        1 MOL      0.228586
     21 C8         -2.5840    6.0170   -0.9760 c         1 MOL      0.228576
     22 O5         -3.4590    6.8730   -1.0420 o         1 MOL     -0.484676
     23 C9         -0.3050    6.8640   -0.7600 c3        1 MOL     -0.090548
     24 C10         1.0760    7.1520   -0.1070 c3        1 MOL     -0.074372
     25 C11         1.0340    7.9920    1.1790 c3        1 MOL     -0.148690
     26 C12         2.4320    8.1040    1.7890 c3        1 MOL      0.093242
     27 N3          2.3880    8.8570    3.1300 n4        1 MOL     -0.406123
     28 H8         -0.1000    4.5560    0.5220 hn        1 MOL      0.336851
     29 H9         -1.6770    6.9850    0.7360 h1        1 MOL      0.025637
     30 H10        -0.7240    7.8170   -1.0790 hc        1 MOL      0.053435
     31 H11        -0.0850    6.2650   -1.6420 hc        1 MOL      0.053435
     32 H12         1.5160    7.7300   -0.9160 hc        1 MOL      0.066283
     33 H13         1.6000    6.2240    0.0930 hc        1 MOL      0.066283
     34 H14         0.3960    7.5840    1.9620 hc        1 MOL      0.071698
     35 H15         0.6940    8.9760    0.8640 hc        1 MOL      0.071698
     36 H16         3.1230    8.5790    1.0830 hx        1 MOL      0.081342
     37 H17         2.8060    7.0900    1.9350 hx        1 MOL      0.081342
     38 H18         1.8630    8.3330    3.8230 hn        1 MOL      0.332492
     39 H19         3.3290    9.0380    3.4510 hn        1 MOL      0.332492
     40 H20         2.0160    9.7960    3.0940 hn        1 MOL      0.332492
     41 N4         -2.4980    4.9210   -1.7610 n         1 MOL     -0.107748
     42 C13        -3.5270    4.5910   -2.7410 c3        1 MOL     -0.006647
     43 C14        -4.7250    3.8250   -2.1290 c         1 MOL      0.398075
     44 O6         -5.7040    3.4950   -2.7570 o         1 MOL     -0.543958
     45 C15        -2.7850    3.7540   -3.8300 c3        1 MOL     -0.273679
     46 C16        -2.1250    2.5130   -3.2150 c         1 MOL      0.836584
     47 O7         -2.7810    1.5270   -2.9240 o         1 MOL     -0.761169
     48 O8         -0.9230    2.4700   -2.9250 o         1 MOL     -0.761169
     49 H21        -1.6230    4.4240   -1.8500 hn        1 MOL      0.181366
     50 H22        -3.9630    5.4820   -3.1830 h1        1 MOL      0.098871
     51 H23        -1.9860    4.3640   -4.2650 hc        1 MOL      0.063870
     52 H24        -3.3570    3.3270   -4.6660 hc        1 MOL      0.063870
     53 N5         -4.5870    3.2700   -0.8970 n         1 MOL      0.058151
     54 C17        -5.7360    3.0560    0.0080 c3        1 MOL     -0.178057
     55 C18        -6.3150    1.6890   -0.0790 c         1 MOL      0.511086
     56 O9         -7.4400    1.4370    0.4780 o         1 MOL     -0.602563
     57 H25        -3.6710    3.4730   -0.5280 hn        1 MOL      0.101624
     58 H26        -6.4080    3.9070   -0.1390 h1        1 MOL      0.093388
     59 H27        -5.2740    3.0930    0.9980 h1        1 MOL      0.093388
     60 N6         -5.7400    0.8020   -0.8310 n         1 MOL     -0.102904
     61 C19        -6.2830   -0.5070   -1.0770 c3        1 MOL     -0.236002
     62 C20        -6.2180   -1.5830    0.0660 c         1 MOL      0.360841
     63 O10        -6.7210   -2.6820   -0.1250 o         1 MOL     -0.481089
     64 C21        -5.6300   -1.0750   -2.3930 c3        1 MOL     -0.234322
     65 C22        -4.2620   -1.7470   -2.2010 c         1 MOL      0.403239
     66 N7         -4.1390   -2.8960   -2.8320 n         1 MOL     -0.577029
     67 O11        -3.3790   -1.2660   -1.5070 o         1 MOL     -0.451708
     68 H28        -4.8060    1.0410   -1.1440 hn        1 MOL      0.159273
     69 H29        -7.3570   -0.4750   -1.2780 h1        1 MOL      0.168779
     70 H30        -5.5870   -0.2830   -3.1410 hc        1 MOL      0.130274
     71 H31        -6.3050   -1.8500   -2.7670 hc        1 MOL      0.130274
     72 H32        -4.7870   -3.2480   -3.5290 hn        1 MOL      0.306338
     73 H33        -3.2200   -3.3210   -2.8520 hn        1 MOL      0.306338
     74 N8         -5.8190   -1.2290    1.2460 n         1 MOL     -0.079527
     75 C23        -5.7850   -2.0900    2.4390 c3        1 MOL     -0.560000
     76 C24        -4.5850   -3.0540    2.3970 c         1 MOL      0.738779
     77 O12        -4.5070   -3.9430    3.2470 o         1 MOL     -0.566361
     78 H34        -5.1910   -0.4380    1.2860 hn        1 MOL      0.305062
     79 H35        -6.7010   -2.6630    2.5620 h1        1 MOL      0.208546
     80 H36        -5.7850   -1.3970    3.2770 h1        1 MOL      0.208546
     81 N9         -3.5760   -2.9080    1.5130 n         1 MOL     -0.688975
     82 C25        -2.3520   -3.7490    1.3350 c3        1 MOL      0.555279
     83 C26        -1.1760   -2.8340    1.0330 c         1 MOL      0.161377
     84 O13        -1.4480   -1.8380    0.3720 o         1 MOL     -0.575597
     85 C27        -2.4150   -4.8920    0.3070 c3        1 MOL     -0.103922
     86 C28        -3.5030   -5.9010    0.5160 ca        1 MOL     -0.000230
     87 C29        -4.8510   -5.5470    0.1520 ca        1 MOL     -0.107211
     88 C30        -3.2410   -7.1770    1.0340 ca        1 MOL     -0.107211
     89 C31        -5.9650   -6.3740    0.3450 ca        1 MOL     -0.311947
     90 C32        -4.3770   -8.0140    1.2740 ca        1 MOL     -0.311947
     91 C33        -5.7220   -7.6050    0.9050 ca        1 MOL      0.356274
     92 O14        -6.7000   -8.3840    1.3710 oh        1 MOL     -0.423977
     93 H37        -3.7310   -2.2700    0.7420 hn        1 MOL      0.556581
     94 H38        -2.1930   -4.1940    2.3120 h1        1 MOL     -0.048860
     95 H39        -1.4760   -5.3590    0.0270 hc        1 MOL      0.015752
     96 H40        -2.6640   -4.3590   -0.6040 hc        1 MOL      0.015752
     97 H41        -5.0420   -4.5740   -0.2760 ha        1 MOL      0.098269
     98 H42        -2.2570   -7.5960    1.1980 ha        1 MOL      0.098269
     99 H43        -6.9860   -6.0140    0.3410 ha        1 MOL      0.164998
    100 H44        -4.2990   -8.9620    1.7680 ha        1 MOL      0.164998
    101 H45        -6.3100   -9.2590    1.4800 ho        1 MOL      0.303669
    102 N10         0.0600   -3.1380    1.4790 n         1 MOL     -0.230859
    103 C34         1.2580   -2.4010    1.1630 c3        1 MOL     -0.056126
    104 C35         2.2730   -3.4340    0.8330 c         1 MOL      0.435778
    105 O15         2.1900   -4.5970    1.2500 o         1 MOL     -0.537021
    106 C36         1.6350   -1.3370    2.1930 c3        1 MOL     -0.070082
    107 C37         2.0440   -1.9460    3.5250 c3        1 MOL     -0.306327
    108 C38         0.3990   -0.4510    2.4050 c3        1 MOL     -0.149566
    109 C39         2.3410   -0.8830    4.6450 c3        1 MOL     -0.110902
    110 H46         0.1830   -3.9400    2.0770 hn        1 MOL      0.232879
    111 H47         1.0850   -1.9630    0.1740 h1        1 MOL      0.123232
    112 H48         2.3900   -0.6650    1.7670 hc        1 MOL      0.113432
    113 H49         2.9880   -2.4770    3.4100 hc        1 MOL      0.126130
    114 H50         1.3100   -2.6500    3.9120 hc        1 MOL      0.126130
    115 H51         0.8530    0.4980    2.6960 hc        1 MOL      0.095261
    116 H52        -0.1420   -0.3220    1.4710 hc        1 MOL      0.095261
    117 H53        -0.3330   -0.8780    3.0960 hc        1 MOL      0.095261
    118 H54         1.4470   -0.4830    5.1110 hc        1 MOL      0.041072
    119 H55         2.9000   -1.3410    5.4680 hc        1 MOL      0.041072
    120 H56         3.0060   -0.1530    4.1910 hc        1 MOL      0.041072
    121 N11         3.2240   -3.0280   -0.0450 n         1 MOL     -0.127412
    122 C40         4.3910   -3.8250   -0.5620 c3        1 MOL     -0.042109
    123 C41         5.6600   -3.2310   -0.0190 c         1 MOL      0.456577
    124 O16         5.6990   -2.1510    0.5680 o         1 MOL     -0.411876
    125 C42         4.4340   -3.5100   -2.0350 c3        1 MOL     -0.143067
    126 O17         4.2700   -2.1410   -2.4260 oh        1 MOL     -0.361978
    127 H57         3.2660   -2.0490   -0.2690 hn        1 MOL      0.088107
    128 H58         4.1470   -4.8580   -0.2880 h1        1 MOL      0.107878
    129 H59         3.7730   -4.1390   -2.6290 h1        1 MOL      0.085962
    130 H60         5.3880   -3.8230   -2.4420 h1        1 MOL      0.085962
    131 H61         3.8020   -2.1950   -3.2670 ho        1 MOL      0.378302
    132 N12         6.7100   -4.0260   -0.0760 n         1 MOL     -0.357626
    133 C43         7.9950   -3.6140    0.3960 c3        1 MOL      0.023834
    134 C44         8.6580   -2.4770   -0.4700 c         1 MOL      0.454185
    135 O18         9.4450   -1.6780    0.0890 o         1 MOL     -0.487442
    136 C45         8.9750   -4.8470    0.4430 c3        1 MOL     -0.360322
    137 H62         6.5950   -4.9240   -0.5240 hn        1 MOL      0.259477
    138 H63         7.8090   -3.3610    1.4370 h1        1 MOL      0.137229
    139 H64         8.5690   -5.5880    1.1340 hc        1 MOL      0.115172
    140 H65         9.1400   -5.2810   -0.5440 hc        1 MOL      0.115172
    141 H66         9.9410   -4.5710    0.8730 hc        1 MOL      0.115172
    142 N13         7.9910   -2.2030   -1.6460 n         1 MOL     -0.393853
    143 C46         8.1130   -1.0270   -2.4590 c3        1 MOL      0.192201
    144 C47         7.3590    0.1360   -1.9010 c         1 MOL      0.361444
    145 O19         7.9040    1.2480   -1.9460 o         1 MOL     -0.533066
    146 C48         7.5100   -1.3700   -3.8690 c3        1 MOL     -0.228551
    147 H67         7.4170   -2.9420   -2.0260 hn        1 MOL      0.246666
    148 H68         9.1710   -0.7850   -2.6050 h1        1 MOL      0.075960
    149 H69         7.9940   -2.2890   -4.2190 hc        1 MOL      0.055736
    150 H70         6.4590   -1.6340   -3.8480 hc        1 MOL      0.055736
    151 H71         7.7130   -0.4930   -4.4770 hc        1 MOL      0.055736
    152 N14         6.2180   -0.0160   -1.1910 n         1 MOL      0.002607
    153 C49         5.4520    1.1490   -0.6040 c3        1 MOL     -0.126263
    154 C50         6.0990    1.5390    0.7430 c         1 MOL      0.435987
    155 O20         5.9860    2.6550    1.2360 o         1 MOL     -0.557599
    156 C51         3.9880    0.8470   -0.4980 c3        1 MOL      0.079467
    157 C52         3.3410    1.0110   -1.8900 c3        1 MOL     -0.185123
    158 C53         1.8430    0.5430   -1.8550 c         1 MOL      0.728994
    159 O21         1.1560    0.6360   -0.8000 o         1 MOL     -0.715398
    160 O22         1.3630    0.1180   -2.9140 o         1 MOL     -0.715398
    161 H72         5.6950   -0.8780   -1.2430 hn        1 MOL     -0.012214
    162 H73         5.5920    2.0350   -1.2110 h1        1 MOL      0.118850
    163 H74         3.4410    1.5110    0.1630 hc        1 MOL      0.035571
    164 H75         3.7190   -0.1430   -0.1230 hc        1 MOL      0.035571
    165 H76         3.7600    0.3170   -2.6320 hc        1 MOL      0.025143
    166 H77         3.3620    2.0650   -2.1360 hc        1 MOL      0.025143
    167 N15         6.8240    0.5780    1.3890 n         1 MOL     -0.088250
    168 C54         7.6020    0.7900    2.6300 c3        1 MOL     -0.298875
    169 H78         7.9050    1.8360    2.6940 h1        1 MOL      0.116736
    170 H79         6.9870    0.5370    3.4930 h1        1 MOL      0.116736
    171 H80         8.4890    0.1560    2.6170 h1        1 MOL      0.116736
    172 H81         6.7090   -0.3040    0.9160 hn        1 MOL      0.094199
    173 Ca1        -1.1550   -0.0800   -1.7150 Ca        1 MOL      1.771079
    174 O23        -1.9250   -1.1440   -4.1800 oh        1 MOL     -0.859981
    175 H82        -2.7130   -1.6150   -4.4470 ho        1 MOL      0.412420
    176 H83        -1.4770   -0.9450   -5.0110 ho        1 MOL      0.412420
    177 O24        -0.1260   -2.6900   -1.9940 oh        1 MOL     -0.859981
    178 H84        -0.8140   -3.1340   -2.4740 ho        1 MOL      0.412420
    179 H85         0.6160   -3.2980   -2.0100 ho        1 MOL      0.412420
@<TRIPOS>BOND
     1    1    2 1   
     2    1    4 1   
     3    1    5 1   
     4    1    6 1   
     5    2    3 2   
     6    2    7 1   
     7    7    8 1   
     8    7   15 1   
     9    8    9 1   
    10    8   11 1   
    11    8   16 1   
    12    9   10 2   
    13    9   19 1   
    14   11   12 1   
    15   11   17 1   
    16   11   18 1   
    17   12   13 1   
    18   12   14 1   
    19   19   20 1   
    20   19   28 1   
    21   20   21 1   
    22   20   23 1   
    23   20   29 1   
    24   21   22 2   
    25   21   41 1   
    26   23   24 1   
    27   23   30 1   
    28   23   31 1   
    29   24   25 1   
    30   24   32 1   
    31   24   33 1   
    32   25   26 1   
    33   25   34 1   
    34   25   35 1   
    35   26   27 1   
    36   26   36 1   
    37   26   37 1   
    38   27   38 1   
    39   27   39 1   
    40   27   40 1   
    41   41   42 1   
    42   41   49 1   
    43   42   43 1   
    44   42   45 1   
    45   42   50 1   
    46   43   44 2   
    47   43   53 1   
    48   45   46 1   
    49   45   51 1   
    50   45   52 1   
    51   46   47 1   
    52   46   48 1   
    53   53   54 1   
    54   53   57 1   
    55   54   55 1   
    56   54   58 1   
    57   54   59 1   
    58   55   56 2   
    59   55   60 1   
    60   60   61 1   
    61   60   68 1   
    62   61   62 1   
    63   61   64 1   
    64   61   69 1   
    65   62   63 2   
    66   62   74 1   
    67   64   65 1   
    68   64   70 1   
    69   64   71 1   
    70   65   66 1   
    71   65   67 2   
    72   66   72 1   
    73   66   73 1   
    74   74   75 1   
    75   74   78 1   
    76   75   76 1   
    77   75   79 1   
    78   75   80 1   
    79   76   77 2   
    80   76   81 1   
    81   81   82 1   
    82   81   93 1   
    83   82   83 1   
    84   82   85 1   
    85   82   94 1   
    86   83   84 2   
    87   83  102 1   
    88   85   86 1   
    89   85   95 1   
    90   85   96 1   
    91   86   87 ar  
    92   86   88 ar  
    93   87   89 ar  
    94   87   97 1   
    95   88   90 ar  
    96   88   98 1   
    97   89   91 ar  
    98   89   99 1   
    99   90   91 ar  
   100   90  100 1   
   101   91   92 1   
   102   92  101 1   
   103  102  103 1   
   104  102  110 1   
   105  103  104 1   
   106  103  106 1   
   107  103  111 1   
   108  104  105 2   
   109  104  121 1   
   110  106  107 1   
   111  106  108 1   
   112  106  112 1   
   113  107  109 1   
   114  107  113 1   
   115  107  114 1   
   116  108  115 1   
   117  108  116 1   
   118  108  117 1   
   119  109  118 1   
   120  109  119 1   
   121  109  120 1   
   122  121  122 1   
   123  121  127 1   
   124  122  123 1   
   125  122  125 1   
   126  122  128 1   
   127  123  124 2   
   128  123  132 1   
   129  125  126 1   
   130  125  129 1   
   131  125  130 1   
   132  126  131 1   
   133  132  133 1   
   134  132  137 1   
   135  133  134 1   
   136  133  136 1   
   137  133  138 1   
   138  134  135 2   
   139  134  142 1   
   140  136  139 1   
   141  136  140 1   
   142  136  141 1   
   143  142  143 1   
   144  142  147 1   
   145  143  144 1   
   146  143  146 1   
   147  143  148 1   
   148  144  145 2   
   149  144  152 1   
   150  146  149 1   
   151  146  150 1   
   152  146  151 1   
   153  152  153 1   
   154  152  161 1   
   155  153  154 1   
   156  153  156 1   
   157  153  162 1   
   158  154  155 2   
   159  154  167 1   
   160  156  157 1   
   161  156  163 1   
   162  156  164 1   
   163  157  158 1   
   164  157  165 1   
   165  157  166 1   
   166  158  159 1   
   167  158  160 1   
   168  167  168 1   
   169  167  172 1   
   170  168  169 1   
   171  168  170 1   
   172  168  171 1   
   173  174  175 1   
   174  174  176 1   
   175  177  178 1   
   176  177  179 1   
@<TRIPOS>SUBSTRUCTURE
     1 MOL         1 TEMP              0 ****  ****    0 ROOT
