@<TRIPOS>MOLECULE
MOL
  183   181     1     0     0
SMALL
resp


@<TRIPOS>ATOM
      1 C1         -0.1160    2.1510    6.1360 c3        1 MOL     -0.375109
      2 C2         -0.7240    2.1180    4.7030 c         1 MOL      0.826339
      3 O1         -0.0660    2.5120    3.7440 o         1 MOL     -0.638007
      4 H1         -0.8380    1.7470    6.8460 hc        1 MOL      0.088854
      5 H2          0.7930    1.5490    6.1590 hc        1 MOL      0.088854
      6 H3          0.1220    3.1800    6.4060 hc        1 MOL      0.088854
      7 N1         -1.9100    1.6540    4.3330 n         1 MOL     -0.738088
      8 C3         -2.4030    1.5950    2.9510 c3        1 MOL      0.471367
      9 C4         -2.7470    2.9720    2.4530 c         1 MOL      0.382037
     10 O2         -3.5350    3.7690    3.0360 o         1 MOL     -0.628042
     11 C5         -3.6390    0.7080    2.9620 c3        1 MOL     -0.203301
     12 C6         -4.3500    0.4950    1.5910 c         1 MOL      0.602734
     13 O3         -5.5160   -0.0030    1.6090 o         1 MOL     -0.562859
     14 O4         -3.7320    0.7920    0.5630 o         1 MOL     -0.562859
     15 H4         -2.4840    1.3060    5.0850 hn        1 MOL      0.306244
     16 H5         -1.6680    1.1290    2.2940 h1        1 MOL     -0.022776
     17 H6         -4.3410    1.2650    3.5730 hc        1 MOL      0.007113
     18 H7         -3.4440   -0.2630    3.4210 hc        1 MOL      0.007113
     19 N2         -2.1960    3.3730    1.3740 n         1 MOL     -0.004492
     20 C7         -2.2720    4.7460    0.7690 c3        1 MOL     -0.021307
     21 C8         -3.3680    4.8610   -0.3070 c         1 MOL      0.705623
     22 O5         -3.6470    5.9960   -0.6580 o         1 MOL     -0.604247
     23 C9         -0.9080    5.2690    0.3460 c3        1 MOL      0.202982
     24 C10        -0.0730    5.4320    1.6360 c3        1 MOL      0.129799
     25 C11        -0.8770    6.5240   -0.4770 c3        1 MOL     -0.231101
     26 C12        -0.6270    6.4660    2.6950 c3        1 MOL     -0.235776
     27 H8         -1.7450    2.6510    0.8280 hn        1 MOL      0.094775
     28 H9         -2.5790    5.4620    1.5270 h1        1 MOL     -0.002536
     29 H10        -0.5080    4.4300   -0.2310 hc        1 MOL     -0.010738
     30 H11         0.9160    5.7020    1.2700 hc        1 MOL     -0.045019
     31 H12         0.0370    4.4410    2.0950 hc        1 MOL     -0.045019
     32 H13        -1.3280    7.3360    0.0980 hc        1 MOL      0.042190
     33 H14         0.1120    6.9400   -0.6920 hc        1 MOL      0.042190
     34 H15        -1.4190    6.4770   -1.4280 hc        1 MOL      0.042190
     35 H16        -1.5600    6.1610    3.1790 hc        1 MOL      0.046737
     36 H17         0.0380    6.4990    3.5640 hc        1 MOL      0.046737
     37 H18        -0.6070    7.4700    2.2790 hc        1 MOL      0.046737
     38 N3         -4.0600    3.7810   -0.6480 n         1 MOL     -0.657550
     39 C13        -5.0160    3.7950   -1.7570 c3        1 MOL      0.154917
     40 C14        -6.2760    2.9110   -1.6490 c         1 MOL      0.476921
     41 O6         -7.1960    3.0380   -2.4120 o         1 MOL     -0.549115
     42 C15        -4.3620    3.4870   -3.0480 c3        1 MOL     -0.220033
     43 C16        -3.3970    2.2500   -3.0570 c         1 MOL      0.784173
     44 O7         -2.4100    2.2480   -3.8600 o         1 MOL     -0.717487
     45 O8         -3.6990    1.2430   -2.4040 o         1 MOL     -0.717487
     46 H19        -3.7850    2.9070   -0.2230 hn        1 MOL      0.282108
     47 H20        -5.4330    4.7950   -1.8600 h1        1 MOL      0.061835
     48 H21        -3.7390    4.3330   -3.3370 hc        1 MOL      0.043099
     49 H22        -5.1740    3.3590   -3.7660 hc        1 MOL      0.043099
     50 N4         -6.5040    2.1390   -0.6010 n         1 MOL     -0.242981
     51 C17        -7.8250    1.7380   -0.1500 c3        1 MOL     -0.118687
     52 C18        -8.2500    0.3260   -0.7650 c         1 MOL      0.521161
     53 O9         -9.4500    0.2080   -1.1380 o         1 MOL     -0.609429
     54 H23        -5.7470    1.9480    0.0400 hn        1 MOL      0.206240
     55 H24        -8.6170    2.4570   -0.3510 h1        1 MOL      0.076355
     56 H25        -7.8380    1.6050    0.9340 h1        1 MOL      0.076355
     57 N5         -7.3360   -0.6600   -0.7730 n         1 MOL     -0.193776
     58 C19        -7.4730   -2.0480   -1.1510 c3        1 MOL      0.056310
     59 C20        -7.3390   -3.0380    0.0670 c         1 MOL      0.298601
     60 O10        -7.7980   -4.1830    0.0040 o         1 MOL     -0.526869
     61 C21        -6.4410   -2.4100   -2.1790 c3        1 MOL      0.007036
     62 C22        -4.9360   -2.1100   -1.8060 c         1 MOL      0.600570
     63 O11        -4.0990   -2.1150   -2.7290 o         1 MOL     -0.720168
     64 O12        -4.5490   -1.8200   -0.6640 o         1 MOL     -0.720168
     65 H26        -6.4910   -0.4200   -0.2770 hn        1 MOL      0.076372
     66 H27        -8.4080   -2.2320   -1.6710 h1        1 MOL      0.065474
     67 H28        -6.7030   -1.8690   -3.0970 hc        1 MOL      0.009817
     68 H29        -6.5710   -3.4560   -2.4300 hc        1 MOL      0.009817
     69 N6         -6.7290   -2.5770    1.2200 n         1 MOL     -0.049377
     70 C23        -6.4200   -3.2710    2.5050 c3        1 MOL     -0.180601
     71 C24        -5.1620   -4.1140    2.3520 c         1 MOL      0.687772
     72 O13        -5.1670   -5.1720    2.9490 o         1 MOL     -0.622330
     73 H30        -6.3600   -1.6510    1.1120 hn        1 MOL      0.043352
     74 H31        -7.2470   -3.9370    2.7580 h1        1 MOL      0.071576
     75 H32        -6.2330   -2.5170    3.2630 h1        1 MOL      0.071576
     76 N7         -4.1600   -3.6690    1.6230 n         1 MOL     -0.354067
     77 C25        -2.8360   -4.2190    1.6230 c3        1 MOL     -0.061624
     78 C26        -1.7020   -3.1730    1.4580 c         1 MOL      0.604484
     79 O14        -1.8690   -1.9930    1.0620 o         1 MOL     -0.619281
     80 C27        -2.7260   -5.3320    0.5580 c3        1 MOL     -0.029543
     81 C28        -2.8240   -5.1000   -1.0010 c3        1 MOL     -0.210544
     82 C29        -1.7550   -4.2010   -1.5710 c         1 MOL      0.494933
     83 N8         -0.8060   -4.7920   -2.3250 n         1 MOL     -0.688220
     84 O15        -1.6290   -3.0120   -1.4280 o         1 MOL     -0.390313
     85 H33        -4.2630   -2.8630    1.0270 hn        1 MOL      0.291643
     86 H34        -2.7140   -4.6410    2.6160 h1        1 MOL      0.055907
     87 H35        -3.5260   -6.0400    0.7470 hc        1 MOL      0.024688
     88 H36        -1.8380   -5.9190    0.7480 hc        1 MOL      0.024688
     89 H37        -3.7790   -4.6800   -1.3270 hc        1 MOL      0.096019
     90 H38        -2.8360   -6.0550   -1.5230 hc        1 MOL      0.096019
     91 H39        -0.9760   -5.7840   -2.3500 hn        1 MOL      0.300599
     92 H40         0.1060   -4.4520   -2.6090 hn        1 MOL      0.300599
     93 N9         -0.4800   -3.6070    1.6560 n         1 MOL     -0.436533
     94 C30         0.6560   -2.6890    1.6800 c3        1 MOL      0.037878
     95 C31         1.7790   -3.2590    0.7740 c         1 MOL      0.399465
     96 O16         2.4270   -4.2580    1.0080 o         1 MOL     -0.578016
     97 C32         1.0430   -2.4420    3.0820 c3        1 MOL      0.349582
     98 C33         2.3450   -1.5810    3.2530 c3        1 MOL     -0.381168
     99 C34         0.0250   -1.9150    4.1200 c3        1 MOL     -0.381168
    100 H41        -0.4100   -4.4960    2.1330 hn        1 MOL      0.271171
    101 H42         0.3630   -1.7510    1.1980 h1        1 MOL      0.066097
    102 H43         1.3480   -3.4220    3.4660 hc        1 MOL     -0.075142
    103 H44         2.6410   -1.5990    4.2990 hc        1 MOL      0.083886
    104 H45         3.1380   -1.8680    2.5650 hc        1 MOL      0.083886
    105 H46         2.0210   -0.5660    3.0600 hc        1 MOL      0.083886
    106 H47         0.3590   -2.1380    5.1400 hc        1 MOL      0.083886
    107 H48        -0.1230   -0.8460    3.9800 hc        1 MOL      0.083886
    108 H49        -0.9550   -2.3700    3.9460 hc        1 MOL      0.083886
    109 N10         2.0660   -2.5330   -0.2790 n         1 MOL      0.067571
    110 C35         3.2300   -2.5940   -1.1580 c3        1 MOL      0.078632
    111 C36         4.4750   -2.0020   -0.4980 c         1 MOL      0.506491
    112 O17         4.2210   -1.2700    0.4590 o         1 MOL     -0.380351
    113 C37         2.8860   -2.0190   -2.5420 c3        1 MOL     -0.394201
    114 C38         1.7720   -2.8050   -3.1940 c         1 MOL      0.815544
    115 N11         0.6520   -2.2650   -3.6160 n         1 MOL     -0.856185
    116 O18         1.9460   -3.9810   -3.2600 o         1 MOL     -0.611605
    117 H50         1.3870   -1.8000   -0.4710 hn        1 MOL     -0.080183
    118 H51         3.4480   -3.6570   -1.2170 h1        1 MOL      0.017184
    119 H52         3.7140   -2.1390   -3.2470 hc        1 MOL      0.084234
    120 H53         2.6530   -0.9560   -2.5170 hc        1 MOL      0.084234
    121 H54         0.5600   -1.2650   -3.4520 hn        1 MOL      0.406650
    122 H55        -0.1300   -2.8180   -3.9430 hn        1 MOL      0.406650
    123 N12         5.6460   -2.3210   -1.0080 n         1 MOL     -0.571895
    124 C39         6.8850   -1.6720   -0.5060 c3        1 MOL      0.172057
    125 C40         6.8450   -0.1710   -0.5070 c         1 MOL      0.371758
    126 O19         7.1100    0.4590    0.5220 o         1 MOL     -0.424285
    127 C41         8.2190   -2.2870   -1.0900 c3        1 MOL     -0.248878
    128 C42         9.4340   -1.6570   -0.4080 ca        1 MOL      0.131732
    129 C43         9.8430   -2.1930    0.8260 ca        1 MOL     -0.251540
    130 C44        10.1950   -0.6140   -1.0700 ca        1 MOL     -0.251540
    131 C45        11.0160   -1.6940    1.5420 ca        1 MOL     -0.180348
    132 C46        11.3360   -0.1260   -0.3930 ca        1 MOL     -0.180348
    133 C47        11.7300   -0.7100    0.8280 ca        1 MOL      0.263564
    134 O20        12.9490   -0.3110    1.3730 oh        1 MOL     -0.506006
    135 H56         5.6840   -3.1190   -1.6260 hn        1 MOL      0.336015
    136 H57         6.8620   -1.9030    0.5680 h1        1 MOL      0.085494
    137 H58         8.3310   -2.1080   -2.1610 hc        1 MOL      0.086672
    138 H59         8.3240   -3.3520   -0.8680 hc        1 MOL      0.086672
    139 H60         9.2890   -2.9670    1.3370 ha        1 MOL      0.166858
    140 H61         9.8300   -0.2300   -2.0100 ha        1 MOL      0.166858
    141 H62        11.4990   -2.2220    2.3400 ha        1 MOL      0.144090
    142 H63        11.8440    0.7610   -0.7430 ha        1 MOL      0.144090
    143 H64        13.2470    0.4290    0.8390 ho        1 MOL      0.350485
    144 N13         6.3940    0.4730   -1.5590 n         1 MOL     -0.297173
    145 C48         6.2370    1.9480   -1.5470 c3        1 MOL      0.110770
    146 C49         5.2270    2.4340   -0.4960 c         1 MOL      0.314398
    147 O21         5.3160    3.5700   -0.1140 o         1 MOL     -0.519244
    148 C50         5.8480    2.4360   -2.9600 c3        1 MOL     -0.120937
    149 C51         4.4390    2.0420   -3.5020 c3        1 MOL     -0.111692
    150 C52         4.1630    2.5310   -4.8860 c         1 MOL      0.658513
    151 O22         4.9440    2.1890   -5.8340 o         1 MOL     -0.719694
    152 O23         3.0510    3.0820   -5.0490 o         1 MOL     -0.719694
    153 H65         6.2480   -0.0880   -2.3840 hn        1 MOL      0.263269
    154 H66         7.2030    2.3910   -1.3050 h1        1 MOL      0.056024
    155 H67         6.4650    1.9600   -3.7400 hc        1 MOL      0.011200
    156 H68         5.9810    3.5010   -3.0800 hc        1 MOL      0.011200
    157 H69         3.7130    2.5790   -2.8960 hc        1 MOL      0.057611
    158 H70         4.1720    1.0010   -3.3230 hc        1 MOL      0.057611
    159 N14         4.4020    1.5610    0.1250 n         1 MOL     -0.005254
    160 C53         3.4980    1.9020    1.3000 c3        1 MOL     -0.013650
    161 C54         4.0920    1.4550    2.6290 c         1 MOL      0.373637
    162 O24         3.8280    1.9420    3.6420 o         1 MOL     -0.544335
    163 C55         2.1540    1.2040    1.0310 c3        1 MOL      0.183385
    164 C56         1.5430    1.6030   -0.3020 c3        1 MOL      0.044289
    165 C57         0.1880    0.9030   -0.4910 c         1 MOL      0.757796
    166 O25        -0.9250    1.4560   -0.3760 o         1 MOL     -0.745865
    167 O26         0.1160   -0.2750   -0.8990 o         1 MOL     -0.745865
    168 H71         4.3550    0.5800   -0.1070 hn        1 MOL      0.082135
    169 H72         3.3380    2.9770    1.3530 h1        1 MOL      0.089822
    170 H73         1.4410    1.4320    1.8240 hc        1 MOL     -0.006764
    171 H74         2.3130    0.1410    0.8740 hc        1 MOL     -0.006764
    172 H75         2.2630    1.4060   -1.0940 hc        1 MOL     -0.070582
    173 H76         1.3200    2.6530   -0.1190 hc        1 MOL     -0.070582
    174 N15         5.2130    0.7580    2.6030 n         1 MOL      0.127078
    175 C58         6.0460    0.3810    3.7430 c3        1 MOL     -0.316467
    176 H77         5.4080    0.1130    4.5850 h1        1 MOL      0.097487
    177 H78         6.6680   -0.4710    3.4730 h1        1 MOL      0.097487
    178 H79         6.6820    1.2210    4.0230 h1        1 MOL      0.097487
    179 H80         5.5870    0.5200    1.7030 hn        1 MOL     -0.130813
    180 Ca1        -2.3850   -0.5870   -1.1830 Ca        1 MOL      1.742519
    181 O27        -1.9410   -0.6210   -4.1450 oh        1 MOL     -0.843505
    182 H81        -2.0690    0.3250   -4.2350 ho        1 MOL      0.395423
    183 H82        -2.2660   -0.9850   -4.9700 ho        1 MOL      0.395423
@<TRIPOS>BOND
     1    1    2 1   
     2    1    4 1   
     3    1    5 1   
     4    1    6 1   
     5    2    3 2   
     6    2    7 1   
     7    7    8 1   
     8    7   15 1   
     9    8    9 1   
    10    8   11 1   
    11    8   16 1   
    12    9   10 2   
    13    9   19 1   
    14   11   12 1   
    15   11   17 1   
    16   11   18 1   
    17   12   13 1   
    18   12   14 1   
    19   19   20 1   
    20   19   27 1   
    21   20   21 1   
    22   20   23 1   
    23   20   28 1   
    24   21   22 2   
    25   21   38 1   
    26   23   24 1   
    27   23   25 1   
    28   23   29 1   
    29   24   26 1   
    30   24   30 1   
    31   24   31 1   
    32   25   32 1   
    33   25   33 1   
    34   25   34 1   
    35   26   35 1   
    36   26   36 1   
    37   26   37 1   
    38   38   39 1   
    39   38   46 1   
    40   39   40 1   
    41   39   42 1   
    42   39   47 1   
    43   40   41 2   
    44   40   50 1   
    45   42   43 1   
    46   42   48 1   
    47   42   49 1   
    48   43   44 1   
    49   43   45 1   
    50   50   51 1   
    51   50   54 1   
    52   51   52 1   
    53   51   55 1   
    54   51   56 1   
    55   52   53 2   
    56   52   57 1   
    57   57   58 1   
    58   57   65 1   
    59   58   59 1   
    60   58   61 1   
    61   58   66 1   
    62   59   60 2   
    63   59   69 1   
    64   61   62 1   
    65   61   67 1   
    66   61   68 1   
    67   62   63 1   
    68   62   64 1   
    69   69   70 1   
    70   69   73 1   
    71   70   71 1   
    72   70   74 1   
    73   70   75 1   
    74   71   72 2   
    75   71   76 1   
    76   76   77 1   
    77   76   85 1   
    78   77   78 1   
    79   77   80 1   
    80   77   86 1   
    81   78   79 2   
    82   78   93 1   
    83   80   81 1   
    84   80   87 1   
    85   80   88 1   
    86   81   82 1   
    87   81   89 1   
    88   81   90 1   
    89   82   83 1   
    90   82   84 2   
    91   83   91 1   
    92   83   92 1   
    93   93   94 1   
    94   93  100 1   
    95   94   95 1   
    96   94   97 1   
    97   94  101 1   
    98   95   96 2   
    99   95  109 1   
   100   97   98 1   
   101   97   99 1   
   102   97  102 1   
   103   98  103 1   
   104   98  104 1   
   105   98  105 1   
   106   99  106 1   
   107   99  107 1   
   108   99  108 1   
   109  109  110 1   
   110  109  117 1   
   111  110  111 1   
   112  110  113 1   
   113  110  118 1   
   114  111  112 2   
   115  111  123 1   
   116  113  114 1   
   117  113  119 1   
   118  113  120 1   
   119  114  115 1   
   120  114  116 2   
   121  115  121 1   
   122  115  122 1   
   123  123  124 1   
   124  123  135 1   
   125  124  125 1   
   126  124  127 1   
   127  124  136 1   
   128  125  126 2   
   129  125  144 1   
   130  127  128 1   
   131  127  137 1   
   132  127  138 1   
   133  128  129 ar  
   134  128  130 ar  
   135  129  131 ar  
   136  129  139 1   
   137  130  132 ar  
   138  130  140 1   
   139  131  133 ar  
   140  131  141 1   
   141  132  133 ar  
   142  132  142 1   
   143  133  134 1   
   144  134  143 1   
   145  144  145 1   
   146  144  153 1   
   147  145  146 1   
   148  145  148 1   
   149  145  154 1   
   150  146  147 2   
   151  146  159 1   
   152  148  149 1   
   153  148  155 1   
   154  148  156 1   
   155  149  150 1   
   156  149  157 1   
   157  149  158 1   
   158  150  151 1   
   159  150  152 1   
   160  159  160 1   
   161  159  168 1   
   162  160  161 1   
   163  160  163 1   
   164  160  169 1   
   165  161  162 2   
   166  161  174 1   
   167  163  164 1   
   168  163  170 1   
   169  163  171 1   
   170  164  165 1   
   171  164  172 1   
   172  164  173 1   
   173  165  166 1   
   174  165  167 1   
   175  174  175 1   
   176  174  179 1   
   177  175  176 1   
   178  175  177 1   
   179  175  178 1   
   180  181  182 1   
   181  181  183 1   
@<TRIPOS>SUBSTRUCTURE
     1 MOL         1 TEMP              0 ****  ****    0 ROOT
