@<TRIPOS>MOLECULE
MOL
  172   171     1     0     0
SMALL
resp


@<TRIPOS>ATOM
      1 C1         -0.3710   -2.6900    5.8270 c3        1 MOL     -0.406682
      2 C2          0.0090   -2.6020    4.3320 c         1 MOL      0.707956
      3 O1         -0.6400   -3.2840    3.5460 o         1 MOL     -0.575412
      4 H1         -0.2970   -3.7250    6.1600 hc        1 MOL      0.095703
      5 H2          0.3100   -2.0710    6.4120 hc        1 MOL      0.095703
      6 H3         -1.3920   -2.3360    5.9650 hc        1 MOL      0.095703
      7 N1          0.9250   -1.7110    3.9800 n         1 MOL     -0.502164
      8 C3          1.6930   -1.7210    2.7050 c3        1 MOL      0.025915
      9 C4          2.1670   -3.1730    2.3970 c         1 MOL      0.571863
     10 O2          2.7520   -3.8120    3.2520 o         1 MOL     -0.583790
     11 C5          2.8130   -0.6950    2.9780 c3        1 MOL     -0.163224
     12 C6          3.6650   -0.3650    1.7000 c         1 MOL      0.771129
     13 O3          3.2360   -0.8420    0.5920 o         1 MOL     -0.669738
     14 O4          4.6870    0.2750    1.8490 o         1 MOL     -0.669738
     15 H4          1.3670   -1.3500    4.8100 hn        1 MOL      0.293855
     16 H5          1.1200   -1.3140    1.8730 h1        1 MOL      0.075114
     17 H6          3.4650   -0.9580    3.8080 hc        1 MOL      0.024076
     18 H7          2.3640    0.2670    3.2410 hc        1 MOL      0.024076
     19 N2          1.7920   -3.6270    1.1890 n         1 MOL     -0.221226
     20 C7          1.9070   -5.0700    0.8690 c3        1 MOL      0.104075
     21 C8          2.7490   -5.3890   -0.3210 c         1 MOL      0.365686
     22 O5          2.9890   -6.5580   -0.6660 o         1 MOL     -0.523444
     23 C9          0.4060   -5.5940    0.5670 c3        1 MOL     -0.306138
     24 H8          1.4650   -3.0150    0.4480 hn        1 MOL      0.125072
     25 H9          2.3990   -5.4910    1.7390 h1        1 MOL      0.064288
     26 H10         0.4670   -6.6820    0.5530 hc        1 MOL      0.090812
     27 H11        -0.3520   -5.1910    1.2340 hc        1 MOL      0.090812
     28 H12         0.1720   -5.4140   -0.4820 hc        1 MOL      0.090812
     29 N3          3.1680   -4.3770   -1.1780 n         1 MOL     -0.306786
     30 C10         4.3340   -4.5650   -2.0500 c3        1 MOL      0.140077
     31 C11         5.6260   -3.9390   -1.4520 c         1 MOL      0.383482
     32 O6          6.7540   -4.3090   -1.7750 o         1 MOL     -0.563727
     33 C12         4.0840   -3.8610   -3.4240 c3        1 MOL     -0.125820
     34 C13         3.6280   -2.3630   -3.4140 c         1 MOL      0.755562
     35 O7          3.5020   -1.7860   -4.5190 o         1 MOL     -0.723509
     36 O8          3.2770   -1.7170   -2.4130 o         1 MOL     -0.723509
     37 H13         2.7720   -3.4580   -1.0520 hn        1 MOL      0.286879
     38 H14         4.6200   -5.6040   -2.2220 h1        1 MOL      0.053957
     39 H15         3.2210   -4.4170   -3.7750 hc        1 MOL      0.019341
     40 H16         4.9140   -4.0600   -4.1160 hc        1 MOL      0.019341
     41 N4          5.4390   -3.0410   -0.5350 n         1 MOL      0.047596
     42 C14         6.4130   -2.4550    0.3910 c3        1 MOL     -0.216967
     43 C15         7.0890   -1.2940   -0.3280 c         1 MOL      0.642267
     44 O9          8.2690   -1.4720   -0.6550 o         1 MOL     -0.588683
     45 H17         4.4800   -2.7430   -0.4080 hn        1 MOL     -0.071649
     46 H18         7.0360   -3.2560    0.7900 h1        1 MOL      0.098265
     47 H19         5.8460   -2.0430    1.2110 h1        1 MOL      0.098265
     48 N5          6.4610   -0.1380   -0.5670 n         1 MOL     -0.403287
     49 C16         7.0300    1.0180   -1.3380 c3        1 MOL      0.023882
     50 C17         7.1880    2.1930   -0.4590 c         1 MOL      0.470802
     51 O10         7.8250    3.1690   -0.8790 o         1 MOL     -0.583200
     52 C18         6.1580    1.1730   -2.5620 c3        1 MOL     -0.103107
     53 C19         4.8960    1.9060   -2.2800 c         1 MOL      0.577549
     54 N6          4.5130    2.9230   -3.1070 n         1 MOL     -0.791605
     55 O11         4.1640    1.6040   -1.3760 o         1 MOL     -0.557456
     56 H20         5.5210   -0.0840   -0.2090 hn        1 MOL      0.113857
     57 H21         8.0570    0.7780   -1.6150 h1        1 MOL      0.109547
     58 H22         5.8290    0.2490   -3.0230 hc        1 MOL      0.076436
     59 H23         6.6880    1.7330   -3.3440 hc        1 MOL      0.076436
     60 H24         5.1220    3.2520   -3.8450 hn        1 MOL      0.377229
     61 H25         3.6060    3.3510   -2.9670 hn        1 MOL      0.377229
     62 N7          6.6150    2.3420    0.7340 n         1 MOL     -0.249503
     63 C20         6.7270    3.5750    1.5570 c3        1 MOL     -0.045518
     64 C21         5.3510    4.2680    1.7610 c         1 MOL      0.478878
     65 O12         5.1550    5.2550    2.5360 o         1 MOL     -0.567424
     66 H26         5.9690    1.6750    1.1490 hn        1 MOL      0.233460
     67 H27         7.3110    4.3650    1.0960 h1        1 MOL      0.079166
     68 H28         7.2230    3.3170    2.4910 h1        1 MOL      0.079166
     69 N8          4.3390    3.7860    0.9840 n         1 MOL     -0.326474
     70 C22         3.0090    4.4580    0.8540 c3        1 MOL      0.005577
     71 C23         1.8890    3.3950    0.8860 c         1 MOL      0.578431
     72 O13         1.9760    2.2790    0.3200 o         1 MOL     -0.674500
     73 C24         2.9320    5.4740   -0.3190 c3        1 MOL      0.458276
     74 C25         1.6520    6.3900   -0.3650 c3        1 MOL     -0.411800
     75 O14         3.9990    6.3360   -0.2460 oh        1 MOL     -0.575052
     76 H29         4.5220    3.0800    0.2850 hn        1 MOL      0.234519
     77 H30         2.8920    5.0890    1.7350 h1        1 MOL      0.084618
     78 H31         2.9830    4.8510   -1.2100 h1        1 MOL     -0.065744
     79 H32         4.7310    5.7950   -0.5540 ho        1 MOL      0.348702
     80 H33         1.6390    6.9590    0.5600 hc        1 MOL      0.111580
     81 H34         1.7210    6.9440   -1.2990 hc        1 MOL      0.111580
     82 H35         0.7800    5.7530   -0.5300 hc        1 MOL      0.111580
     83 N9          0.7790    3.7000    1.5480 n         1 MOL     -0.584734
     84 C26        -0.4020    2.7710    1.6290 c3        1 MOL      0.089737
     85 C27        -1.5270    3.0560    0.5670 c         1 MOL      0.523354
     86 O15        -2.0220    4.1990    0.4310 o         1 MOL     -0.624539
     87 C28        -1.0070    2.7340    3.0420 c3        1 MOL      0.098587
     88 C29         0.0370    2.3710    4.0760 c3        1 MOL      0.251795
     89 C30        -2.2060    1.7080    3.1530 c3        1 MOL     -0.174816
     90 C31        -0.2510    2.5260    5.5860 c3        1 MOL     -0.278911
     91 H36         0.7680    4.5820    2.0210 hn        1 MOL      0.286258
     92 H37         0.0040    1.7940    1.3830 h1        1 MOL      0.197246
     93 H38        -1.4600    3.6980    3.2390 hc        1 MOL     -0.016203
     94 H39         0.9360    2.9820    3.9700 hc        1 MOL     -0.050527
     95 H40         0.3140    1.3420    3.8410 hc        1 MOL     -0.050527
     96 H41        -2.6100    1.6520    4.1710 hc        1 MOL      0.019771
     97 H42        -3.0170    2.0880    2.5260 hc        1 MOL      0.019771
     98 H43        -2.0440    0.6690    2.8890 hc        1 MOL      0.019771
     99 H44        -0.9130    1.7160    5.9020 hc        1 MOL      0.049173
    100 H45         0.6880    2.4000    6.1200 hc        1 MOL      0.049173
    101 H46        -0.6720    3.4820    5.8800 hc        1 MOL      0.049173
    102 N10        -1.8840    2.0580   -0.1570 n         1 MOL     -0.130281
    103 C32        -2.8390    2.1260   -1.3070 c3        1 MOL     -0.008695
    104 C33        -4.2200    1.6940   -0.8620 c         1 MOL      0.528446
    105 O16        -4.3070    0.9970    0.1690 o         1 MOL     -0.450433
    106 C34        -2.3610    1.1970   -2.4500 c3        1 MOL     -0.234070
    107 C35        -1.0210    1.4200   -3.0660 c         1 MOL      0.682559
    108 O17        -0.7460    2.4450   -3.7050 o         1 MOL     -0.699956
    109 O18        -0.1640    0.5060   -3.0400 o         1 MOL     -0.699956
    110 H47        -1.4380    1.1820    0.0790 hn        1 MOL     -0.000268
    111 H48        -2.8500    3.1640   -1.6210 h1        1 MOL      0.082079
    112 H49        -3.0880    1.3670   -3.2390 hc        1 MOL      0.089712
    113 H50        -2.3820    0.1360   -2.1690 hc        1 MOL      0.089712
    114 N11        -5.2960    2.0130   -1.5720 n         1 MOL     -0.644029
    115 C36        -6.6160    1.6760   -1.1120 c3        1 MOL      0.379962
    116 C37        -6.8270    0.1620   -0.7670 c         1 MOL      0.273078
    117 O19        -7.2860   -0.1610    0.3190 o         1 MOL     -0.478847
    118 C38        -7.7420    2.2270   -2.1050 c3        1 MOL     -0.104397
    119 C39        -9.1700    1.9080   -1.6890 ca        1 MOL      0.114231
    120 C40        -9.5130    2.1540   -0.3200 ca        1 MOL     -0.231067
    121 C41       -10.1350    1.3280   -2.5540 ca        1 MOL     -0.231067
    122 C42       -10.7750    1.7840    0.1650 ca        1 MOL     -0.044714
    123 C43       -11.3710    0.9490   -2.0080 ca        1 MOL     -0.044714
    124 C44       -11.7470    1.2110   -0.6970 ca        1 MOL     -0.164935
    125 H51        -5.1860    2.7220   -2.2770 hn        1 MOL      0.323428
    126 H52        -6.8020    2.2150   -0.1830 h1        1 MOL      0.038313
    127 H53        -7.5630    1.8730   -3.1200 hc        1 MOL      0.036844
    128 H54        -7.6600    3.3080   -2.1540 hc        1 MOL      0.036844
    129 H55        -8.7660    2.6840    0.2610 ha        1 MOL      0.125257
    130 H56        -9.8500    1.0560   -3.5660 ha        1 MOL      0.125257
    131 H57       -10.9680    1.9140    1.2260 ha        1 MOL      0.096942
    132 H58       -12.0620    0.3580   -2.5970 ha        1 MOL      0.096942
    133 H59       -12.7510    1.0070   -0.3340 ha        1 MOL      0.112127
    134 N12        -6.3660   -0.8500   -1.5340 n         1 MOL      0.040971
    135 C45        -6.6580   -2.2240   -1.2470 c3        1 MOL     -0.021945
    136 C46        -5.7760   -2.7950   -0.1300 c         1 MOL      0.356021
    137 O20        -6.0940   -3.7960    0.5010 o         1 MOL     -0.518939
    138 C47        -6.4310   -2.9250   -2.5650 c3        1 MOL     -0.203327
    139 C48        -5.4950   -2.0640   -3.3930 c3        1 MOL      0.042255
    140 C49        -5.8730   -0.7080   -2.8700 c3        1 MOL     -0.024940
    141 H60        -7.6810   -2.4540   -0.9440 h1        1 MOL      0.093398
    142 H61        -5.9060   -3.8780   -2.4670 hc        1 MOL      0.070489
    143 H62        -7.4250   -3.0350   -2.9820 hc        1 MOL      0.070489
    144 H63        -4.4500   -2.2360   -3.1580 hc        1 MOL      0.029848
    145 H64        -5.6380   -2.3020   -4.4440 hc        1 MOL      0.029848
    146 H65        -5.0500   -0.0270   -3.1050 h1        1 MOL     -0.005738
    147 H66        -6.7360   -0.3160   -3.4080 h1        1 MOL     -0.005738
    148 N13        -4.6950   -2.1070    0.2450 n         1 MOL     -0.128772
    149 C50        -3.8850   -2.3510    1.4110 c3        1 MOL     -0.162989
    150 C51        -4.6800   -1.8770    2.6690 c         1 MOL      0.470903
    151 O21        -4.8330   -2.6630    3.6050 o         1 MOL     -0.528238
    152 C52        -2.5660   -1.6920    1.2440 c3        1 MOL      0.110682
    153 C53        -1.7000   -2.2190    0.1300 c3        1 MOL      0.124899
    154 C54        -0.3300   -1.4110   -0.2660 c         1 MOL      0.503484
    155 O22        -0.1540   -0.2390    0.0490 o         1 MOL     -0.693976
    156 O23         0.5800   -1.9870   -0.8900 o         1 MOL     -0.693976
    157 H67        -4.5140   -1.3590   -0.3980 hn        1 MOL      0.157909
    158 H68        -3.7890   -3.4090    1.6510 h1        1 MOL      0.124997
    159 H69        -2.0530   -1.7620    2.2100 hc        1 MOL      0.014506
    160 H70        -2.7070   -0.6200    1.1000 hc        1 MOL      0.014506
    161 H71        -2.2970   -2.2690   -0.7800 hc        1 MOL     -0.020541
    162 H72        -1.4970   -3.2720    0.3080 hc        1 MOL     -0.020541
    163 N14        -5.3070   -0.6330    2.6730 n         1 MOL     -0.132693
    164 C55        -6.2050   -0.1760    3.7380 c3        1 MOL     -0.116188
    165 H73        -6.1570   -0.8720    4.5760 h1        1 MOL      0.056612
    166 H74        -5.8990    0.8150    4.0720 h1        1 MOL      0.056612
    167 H75        -7.2260   -0.1340    3.3600 h1        1 MOL      0.056612
    168 H76        -5.1590   -0.0670    1.8450 hn        1 MOL      0.129744
    169 Ca1         1.9790    0.2240   -1.4140 Ca        1 MOL      1.770643
    170 O24         2.6400    0.6060   -3.9450 oh        1 MOL     -0.927280
    171 H77         2.9410   -0.2860   -4.1140 ho        1 MOL      0.431615
    172 H78         2.0600    0.8080   -4.6720 ho        1 MOL      0.431615
@<TRIPOS>BOND
     1    1    2 1   
     2    1    4 1   
     3    1    5 1   
     4    1    6 1   
     5    2    3 2   
     6    2    7 1   
     7    7    8 1   
     8    7   15 1   
     9    8    9 1   
    10    8   11 1   
    11    8   16 1   
    12    9   10 2   
    13    9   19 1   
    14   11   12 1   
    15   11   17 1   
    16   11   18 1   
    17   12   13 1   
    18   12   14 1   
    19   19   20 1   
    20   19   24 1   
    21   20   21 1   
    22   20   23 1   
    23   20   25 1   
    24   21   22 2   
    25   21   29 1   
    26   23   26 1   
    27   23   27 1   
    28   23   28 1   
    29   29   30 1   
    30   29   37 1   
    31   30   31 1   
    32   30   33 1   
    33   30   38 1   
    34   31   32 2   
    35   31   41 1   
    36   33   34 1   
    37   33   39 1   
    38   33   40 1   
    39   34   35 1   
    40   34   36 1   
    41   41   42 1   
    42   41   45 1   
    43   42   43 1   
    44   42   46 1   
    45   42   47 1   
    46   43   44 2   
    47   43   48 1   
    48   48   49 1   
    49   48   56 1   
    50   49   50 1   
    51   49   52 1   
    52   49   57 1   
    53   50   51 2   
    54   50   62 1   
    55   52   53 1   
    56   52   58 1   
    57   52   59 1   
    58   53   54 1   
    59   53   55 2   
    60   54   60 1   
    61   54   61 1   
    62   62   63 1   
    63   62   66 1   
    64   63   64 1   
    65   63   67 1   
    66   63   68 1   
    67   64   65 2   
    68   64   69 1   
    69   69   70 1   
    70   69   76 1   
    71   70   71 1   
    72   70   73 1   
    73   70   77 1   
    74   71   72 2   
    75   71   83 1   
    76   73   74 1   
    77   73   75 1   
    78   73   78 1   
    79   74   80 1   
    80   74   81 1   
    81   74   82 1   
    82   75   79 1   
    83   83   84 1   
    84   83   91 1   
    85   84   85 1   
    86   84   87 1   
    87   84   92 1   
    88   85   86 2   
    89   85  102 1   
    90   87   88 1   
    91   87   89 1   
    92   87   93 1   
    93   88   90 1   
    94   88   94 1   
    95   88   95 1   
    96   89   96 1   
    97   89   97 1   
    98   89   98 1   
    99   90   99 1   
   100   90  100 1   
   101   90  101 1   
   102  102  103 1   
   103  102  110 1   
   104  103  104 1   
   105  103  106 1   
   106  103  111 1   
   107  104  105 2   
   108  104  114 1   
   109  106  107 1   
   110  106  112 1   
   111  106  113 1   
   112  107  108 1   
   113  107  109 1   
   114  114  115 1   
   115  114  125 1   
   116  115  116 1   
   117  115  118 1   
   118  115  126 1   
   119  116  117 2   
   120  116  134 1   
   121  118  119 1   
   122  118  127 1   
   123  118  128 1   
   124  119  120 ar  
   125  119  121 ar  
   126  120  122 ar  
   127  120  129 1   
   128  121  123 ar  
   129  121  130 1   
   130  122  124 ar  
   131  122  131 1   
   132  123  124 ar  
   133  123  132 1   
   134  124  133 1   
   135  134  135 1   
   136  134  140 1   
   137  135  136 1   
   138  135  138 1   
   139  135  141 1   
   140  136  137 2   
   141  136  148 1   
   142  138  139 1   
   143  138  142 1   
   144  138  143 1   
   145  139  140 1   
   146  139  144 1   
   147  139  145 1   
   148  140  146 1   
   149  140  147 1   
   150  148  149 1   
   151  148  157 1   
   152  149  150 1   
   153  149  152 1   
   154  149  158 1   
   155  150  151 2   
   156  150  163 1   
   157  152  153 1   
   158  152  159 1   
   159  152  160 1   
   160  153  154 1   
   161  153  161 1   
   162  153  162 1   
   163  154  155 1   
   164  154  156 1   
   165  163  164 1   
   166  163  168 1   
   167  164  165 1   
   168  164  166 1   
   169  164  167 1   
   170  170  171 1   
   171  170  172 1   
@<TRIPOS>SUBSTRUCTURE
     1 MOL         1 TEMP              0 ****  ****    0 ROOT
