@<TRIPOS>MOLECULE
MOL
  189   185     1     0     0
SMALL
resp


@<TRIPOS>ATOM
      1 C1         -0.6960    2.7070    5.4390 c3        1 MOL     -0.459772
      2 C2         -1.1040    2.5580    3.9270 c         1 MOL      0.748740
      3 O1         -0.3090    2.8760    3.0060 o         1 MOL     -0.701570
      4 H1          0.2260    3.2830    5.5110 hc        1 MOL      0.112217
      5 H2         -1.4880    3.2240    5.9810 hc        1 MOL      0.112217
      6 H3         -0.5430    1.7190    5.8740 hc        1 MOL      0.112217
      7 N1         -2.2680    1.9380    3.7650 n         1 MOL     -0.442271
      8 C3         -2.8130    1.6320    2.4170 c3        1 MOL      0.070499
      9 C4         -3.3720    2.9400    1.8440 c         1 MOL      0.230535
     10 O2         -4.4630    3.4040    2.0860 o         1 MOL     -0.472610
     11 C5         -3.9170    0.4900    2.5660 c3        1 MOL     -0.216455
     12 C6         -4.5710    0.0770    1.2760 c         1 MOL      0.776833
     13 O3         -5.6000   -0.6910    1.2970 o         1 MOL     -0.714670
     14 O4         -4.0070    0.3580    0.1610 o         1 MOL     -0.714670
     15 H4         -2.8480    1.8120    4.5800 hn        1 MOL      0.300326
     16 H5         -2.0090    1.3240    1.7440 h1        1 MOL      0.050178
     17 H6         -4.5790    0.7500    3.4030 hc        1 MOL      0.071164
     18 H7         -3.4340   -0.4260    2.8970 hc        1 MOL      0.071164
     19 N2         -2.6120    3.5770    0.9350 n         1 MOL     -0.209726
     20 C7         -3.0410    4.8840    0.3790 c3        1 MOL      0.230488
     21 C8         -4.0670    4.7810   -0.7150 c         1 MOL      0.303198
     22 O5         -4.8540    5.7310   -0.7450 o         1 MOL     -0.539284
     23 C9         -1.8830    5.8140   -0.0950 c3        1 MOL     -0.225402
     24 C10        -0.8490    5.9570    0.9500 c3        1 MOL      0.408732
     25 C11        -0.0670    7.3020    0.9880 c3        1 MOL     -0.322192
     26 C12        -0.8120    8.5150    1.5710 c3        1 MOL      0.005216
     27 N3         -1.1000    8.2460    2.9720 n4        1 MOL     -0.376453
     28 H8         -1.7290    3.1600    0.6880 hn        1 MOL      0.261911
     29 H9         -3.5490    5.4240    1.1690 h1        1 MOL      0.030531
     30 H10        -2.3110    6.7950   -0.3220 hc        1 MOL      0.054009
     31 H11        -1.3380    5.4060   -0.9580 hc        1 MOL      0.054009
     32 H12        -0.1290    5.1410    0.8220 hc        1 MOL     -0.109067
     33 H13        -1.3890    5.8660    1.8970 hc        1 MOL     -0.109067
     34 H14         0.2670    7.4890   -0.0350 hc        1 MOL      0.111742
     35 H15         0.9290    7.2130    1.4310 hc        1 MOL      0.111742
     36 H16        -1.7650    8.5450    1.0450 hx        1 MOL      0.104783
     37 H17        -0.3680    9.5030    1.3910 hx        1 MOL      0.104783
     38 H18        -1.5320    9.0660    3.3790 hn        1 MOL      0.338420
     39 H19        -1.8240    7.5710    3.1620 hn        1 MOL      0.338420
     40 H20        -0.2840    7.8760    3.4380 hn        1 MOL      0.338420
     41 N4         -4.0420    3.6580   -1.5080 n         1 MOL     -0.184646
     42 C13        -5.0120    3.3880   -2.5700 c3        1 MOL      0.083174
     43 C14        -6.1090    2.4090   -2.2670 c         1 MOL      0.421990
     44 O6         -6.9600    2.1700   -3.1790 o         1 MOL     -0.545342
     45 C15        -4.2110    3.1000   -3.8890 c3        1 MOL     -0.247537
     46 C16        -3.2900    1.8490   -3.7680 c         1 MOL      0.740303
     47 O7         -2.6480    1.4950   -4.7630 o         1 MOL     -0.667593
     48 O8         -3.2680    1.2360   -2.6470 o         1 MOL     -0.667593
     49 H21        -3.3420    2.9650   -1.3030 hn        1 MOL      0.084443
     50 H22        -5.5530    4.3230   -2.6890 h1        1 MOL      0.076168
     51 H23        -3.6810    4.0130   -4.1620 hc        1 MOL      0.058078
     52 H24        -4.9880    2.9180   -4.6420 hc        1 MOL      0.058078
     53 N5         -6.1480    1.8330   -1.0670 n         1 MOL     -0.217527
     54 C17        -7.3110    1.1140   -0.5430 c3        1 MOL     -0.289417
     55 C18        -7.5450   -0.2930   -1.0950 c         1 MOL      0.543691
     56 O9         -8.7000   -0.7670   -0.9680 o         1 MOL     -0.569591
     57 H25        -5.3430    1.8850   -0.4500 hn        1 MOL      0.252631
     58 H26        -8.1760    1.7250   -0.8140 h1        1 MOL      0.135763
     59 H27        -7.2750    1.0220    0.5400 h1        1 MOL      0.135763
     60 N6         -6.5910   -0.8520   -1.7660 n         1 MOL     -0.205834
     61 C19        -6.6240   -2.2240   -2.2630 c3        1 MOL     -0.061046
     62 C20        -6.7350   -3.3290   -1.2220 c         1 MOL      0.461694
     63 O10        -7.3280   -4.3720   -1.4230 o         1 MOL     -0.521543
     64 C21        -5.4970   -2.4370   -3.2650 c3        1 MOL     -0.325393
     65 C22        -4.1240   -2.2370   -2.6170 c         1 MOL      0.756020
     66 O11        -3.1490   -1.7630   -3.2840 o         1 MOL     -0.712805
     67 O12        -3.9210   -2.5160   -1.3950 o         1 MOL     -0.712805
     68 H28        -5.6760   -0.4110   -1.7700 hn        1 MOL      0.223682
     69 H29        -7.5030   -2.3710   -2.8860 h1        1 MOL      0.114079
     70 H30        -5.5340   -1.7910   -4.1440 hc        1 MOL      0.117995
     71 H31        -5.4310   -3.4890   -3.5680 hc        1 MOL      0.117995
     72 N7         -6.4600   -2.9900    0.0870 n         1 MOL     -0.218080
     73 C23        -6.4170   -3.9230    1.2130 c3        1 MOL     -0.140079
     74 C24        -5.0960   -4.6260    1.4000 c         1 MOL      0.580412
     75 O13        -4.9940   -5.7130    1.9760 o         1 MOL     -0.596842
     76 H32        -6.0990   -2.0530    0.2060 hn        1 MOL      0.297772
     77 H33        -7.1600   -4.7230    1.2040 h1        1 MOL      0.085374
     78 H34        -6.5160   -3.3840    2.1530 h1        1 MOL      0.085374
     79 N8         -3.9890   -4.0290    0.9350 n         1 MOL     -0.300972
     80 C25        -2.6230   -4.5490    1.0920 c3        1 MOL     -0.141377
     81 C26        -1.6690   -3.3010    1.3100 c         1 MOL      0.579672
     82 O14        -2.0030   -2.1540    1.0720 o         1 MOL     -0.532223
     83 C27        -2.1790   -5.4110   -0.1520 c3        1 MOL      0.607276
     84 C28        -2.5130   -6.8860   -0.1320 c3        1 MOL     -0.514773
     85 O15        -2.7330   -4.9250   -1.4300 oh        1 MOL     -0.716004
     86 H35        -4.0770   -3.1710    0.4140 hn        1 MOL      0.186200
     87 H36        -2.6790   -5.1910    1.9700 h1        1 MOL      0.097556
     88 H37        -1.0900   -5.3800   -0.1690 h1        1 MOL     -0.092896
     89 H38        -3.0400   -4.0220   -1.3850 ho        1 MOL      0.452859
     90 H39        -2.2700   -7.2050    0.8740 hc        1 MOL      0.127036
     91 H40        -3.5730   -7.0680   -0.3430 hc        1 MOL      0.127036
     92 H41        -1.9400   -7.3910   -0.9070 hc        1 MOL      0.127036
     93 N9         -0.4710   -3.6060    1.8380 n         1 MOL     -0.520612
     94 C29         0.7290   -2.7730    2.0490 c3        1 MOL      0.007165
     95 C30         1.9000   -3.3090    1.2720 c         1 MOL      0.514863
     96 O16         2.2590   -4.4670    1.4030 o         1 MOL     -0.558987
     97 C31         0.9980   -2.4530    3.5310 c3        1 MOL      0.096275
     98 C32        -0.2970   -2.0140    4.3420 c3        1 MOL      0.129982
     99 C33         2.1790   -1.4430    3.5840 c3        1 MOL     -0.201687
    100 C34        -0.1450   -2.0410    5.8600 c3        1 MOL     -0.360909
    101 H42        -0.3000   -4.5420    2.1940 hn        1 MOL      0.266494
    102 H43         0.6950   -1.7900    1.5700 h1        1 MOL      0.105978
    103 H44         1.4290   -3.3190    4.0350 hc        1 MOL     -0.002916
    104 H45        -1.1020   -2.6530    4.0030 hc        1 MOL      0.011187
    105 H46        -0.6130   -0.9730    4.2420 hc        1 MOL      0.011187
    106 H47         2.3970   -1.1720    4.6140 hc        1 MOL      0.027891
    107 H48         3.1140   -1.8590    3.1950 hc        1 MOL      0.027891
    108 H49         1.9510   -0.5340    3.0320 hc        1 MOL      0.027891
    109 H50         0.2010   -3.0260    6.1820 hc        1 MOL      0.087121
    110 H51         0.5510   -1.2310    6.0840 hc        1 MOL      0.087121
    111 H52        -1.1270   -1.8480    6.3000 hc        1 MOL      0.087121
    112 N10         2.7130   -2.5260    0.5490 n         1 MOL     -0.274113
    113 C35         4.0770   -2.8970   -0.0840 c3        1 MOL      0.075143
    114 C36         5.3860   -2.4410    0.5910 c         1 MOL      0.328796
    115 O17         5.2790   -1.5740    1.4170 o         1 MOL     -0.339798
    116 C37         4.1930   -2.4610   -1.5940 c3        1 MOL      0.163842
    117 C38         2.9670   -2.8050   -2.4460 c3        1 MOL     -0.404167
    118 O18         4.3030   -1.0320   -1.6530 oh        1 MOL     -0.385417
    119 H53         2.4840   -1.5390    0.4880 hn        1 MOL      0.371904
    120 H54         4.1160   -3.9880   -0.1560 h1        1 MOL      0.047421
    121 H55         4.9880   -2.9980   -2.1060 h1        1 MOL      0.023189
    122 H56         4.5320   -0.7700   -2.5450 ho        1 MOL      0.322427
    123 H57         2.0980   -2.7110   -1.7870 hc        1 MOL      0.114697
    124 H58         2.7700   -2.0370   -3.1960 hc        1 MOL      0.114697
    125 H59         3.1370   -3.7330   -2.9810 hc        1 MOL      0.114697
    126 N11         6.5290   -2.9230    0.2070 n         1 MOL     -0.251920
    127 C39         7.7590   -2.4430    0.8550 c3        1 MOL     -0.114656
    128 C40         7.8930   -0.9340    0.6170 c         1 MOL      0.310622
    129 O19         8.4810   -0.2510    1.5130 o         1 MOL     -0.494355
    130 C41         9.0310   -3.0690    0.3050 c3        1 MOL      0.287800
    131 C42         9.1480   -4.5190    0.7410 c3        1 MOL     -0.292782
    132 O20         9.0320   -3.0500   -1.0670 oh        1 MOL     -0.655643
    133 H60         6.5870   -3.7110   -0.4240 hn        1 MOL      0.268551
    134 H61         7.7050   -2.5700    1.9390 h1        1 MOL      0.146438
    135 H62         9.8730   -2.5370    0.7450 h1        1 MOL      0.053555
    136 H63         9.8820   -3.2210   -1.4740 ho        1 MOL      0.426600
    137 H64         9.1910   -4.5800    1.8250 hc        1 MOL      0.083351
    138 H65         8.2690   -5.1110    0.4870 hc        1 MOL      0.083351
    139 H66        10.0800   -4.9840    0.4230 hc        1 MOL      0.083351
    140 N12         7.4850   -0.3360   -0.5170 n         1 MOL     -0.136860
    141 C43         7.6330    1.1220   -0.8540 c3        1 MOL     -0.048061
    142 C44         6.5530    2.0530   -0.2410 c         1 MOL      0.435619
    143 O21         6.9170    2.9880    0.3800 o         1 MOL     -0.470424
    144 C45         7.6800    1.2520   -2.4200 c3        1 MOL     -0.098350
    145 C46         8.2780    2.5360   -2.8840 c3        1 MOL     -0.006187
    146 C47         8.3930    2.5210   -4.4350 c3        1 MOL     -0.193850
    147 C48         9.2790    1.5060   -5.1210 c3        1 MOL      0.044536
    148 N13        10.7440    1.9220   -5.0970 n4        1 MOL     -0.354932
    149 H67         7.0980   -0.9330   -1.2360 hn        1 MOL      0.121354
    150 H68         8.5790    1.5390   -0.5240 h1        1 MOL      0.103211
    151 H69         6.6630    1.1590   -2.8070 hc        1 MOL      0.054024
    152 H70         8.3330    0.4370   -2.7580 hc        1 MOL      0.054024
    153 H71         9.2080    2.7550   -2.3730 hc        1 MOL      0.049266
    154 H72         7.6120    3.3690   -2.6310 hc        1 MOL      0.049266
    155 H73         8.5870    3.5410   -4.7520 hc        1 MOL      0.093577
    156 H74         7.4290    2.3210   -4.8920 hc        1 MOL      0.093577
    157 H75         8.9100    1.4760   -6.1430 hx        1 MOL      0.088961
    158 H76         9.0190    0.5120   -4.7470 hx        1 MOL      0.088961
    159 H77        11.1290    2.0020   -4.1630 hn        1 MOL      0.292170
    160 H78        11.2410    1.3140   -5.7250 hn        1 MOL      0.292170
    161 H79        10.7380    2.8590   -5.4580 hn        1 MOL      0.292170
    162 N14         5.2490    1.5260   -0.2600 n         1 MOL     -0.282323
    163 C49         4.1150    2.1250    0.5150 c3        1 MOL     -0.087015
    164 C50         4.2460    2.0260    2.0070 c         1 MOL      0.428414
    165 O22         3.8420    2.9820    2.6660 o         1 MOL     -0.546692
    166 C51         2.8780    1.3170    0.0910 c3        1 MOL     -0.032899
    167 C52         1.5330    1.8580    0.5840 c3        1 MOL     -0.511591
    168 C53         0.3360    1.0600    0.0670 c         1 MOL      1.002915
    169 O23         0.2120   -0.1470    0.3070 o         1 MOL     -0.860969
    170 O24        -0.5460    1.6550   -0.5870 o         1 MOL     -0.860969
    171 H80         5.1320    0.7080   -0.8280 hn        1 MOL      0.135676
    172 H81         3.8360    3.1350    0.2070 h1        1 MOL      0.112709
    173 H82         3.0590    0.2810    0.3870 hc        1 MOL     -0.005447
    174 H83         2.7890    1.2850   -0.9930 hc        1 MOL     -0.005447
    175 H84         1.4460    2.9000    0.2780 hc        1 MOL      0.227487
    176 H85         1.5290    1.8540    1.6790 hc        1 MOL      0.227487
    177 N15         4.9580    1.0080    2.5430 n         1 MOL      0.037267
    178 C54         5.4390    0.8990    3.8970 c3        1 MOL     -0.339159
    179 H86         6.3550    1.4790    4.0040 h1        1 MOL      0.112328
    180 H87         4.6840    1.2840    4.5830 h1        1 MOL      0.112328
    181 H88         5.6410   -0.1460    4.1280 h1        1 MOL      0.112328
    182 H89         5.2360    0.2160    1.9900 hn        1 MOL      0.127043
    183 Ca1        -1.9530   -0.4110   -1.2490 Ca        1 MOL      1.754282
    184 O25        -0.5490    0.0560   -3.5930 oh        1 MOL     -0.834964
    185 H90         0.2310    0.1590   -4.1390 ho        1 MOL      0.381201
    186 H91        -1.2610    0.3720   -4.1390 ho        1 MOL      0.381201
    187 O26        -0.7000   -2.8570   -2.0380 oh        1 MOL     -0.834964
    188 H92         0.0860   -3.1830   -2.4800 ho        1 MOL      0.381201
    189 H93        -1.4200   -3.3410   -2.4410 ho        1 MOL      0.381201
@<TRIPOS>BOND
     1    1    2 1   
     2    1    4 1   
     3    1    5 1   
     4    1    6 1   
     5    2    3 2   
     6    2    7 1   
     7    7    8 1   
     8    7   15 1   
     9    8    9 1   
    10    8   11 1   
    11    8   16 1   
    12    9   10 2   
    13    9   19 1   
    14   11   12 1   
    15   11   17 1   
    16   11   18 1   
    17   12   13 1   
    18   12   14 1   
    19   19   20 1   
    20   19   28 1   
    21   20   21 1   
    22   20   23 1   
    23   20   29 1   
    24   21   22 2   
    25   21   41 1   
    26   23   24 1   
    27   23   30 1   
    28   23   31 1   
    29   24   25 1   
    30   24   32 1   
    31   24   33 1   
    32   25   26 1   
    33   25   34 1   
    34   25   35 1   
    35   26   27 1   
    36   26   36 1   
    37   26   37 1   
    38   27   38 1   
    39   27   39 1   
    40   27   40 1   
    41   41   42 1   
    42   41   49 1   
    43   42   43 1   
    44   42   45 1   
    45   42   50 1   
    46   43   44 2   
    47   43   53 1   
    48   45   46 1   
    49   45   51 1   
    50   45   52 1   
    51   46   47 1   
    52   46   48 1   
    53   53   54 1   
    54   53   57 1   
    55   54   55 1   
    56   54   58 1   
    57   54   59 1   
    58   55   56 2   
    59   55   60 1   
    60   60   61 1   
    61   60   68 1   
    62   61   62 1   
    63   61   64 1   
    64   61   69 1   
    65   62   63 2   
    66   62   72 1   
    67   64   65 1   
    68   64   70 1   
    69   64   71 1   
    70   65   66 1   
    71   65   67 1   
    72   72   73 1   
    73   72   76 1   
    74   73   74 1   
    75   73   77 1   
    76   73   78 1   
    77   74   75 2   
    78   74   79 1   
    79   79   80 1   
    80   79   86 1   
    81   80   81 1   
    82   80   83 1   
    83   80   87 1   
    84   81   82 2   
    85   81   93 1   
    86   83   84 1   
    87   83   85 1   
    88   83   88 1   
    89   84   90 1   
    90   84   91 1   
    91   84   92 1   
    92   85   89 1   
    93   93   94 1   
    94   93  101 1   
    95   94   95 1   
    96   94   97 1   
    97   94  102 1   
    98   95   96 2   
    99   95  112 1   
   100   97   98 1   
   101   97   99 1   
   102   97  103 1   
   103   98  100 1   
   104   98  104 1   
   105   98  105 1   
   106   99  106 1   
   107   99  107 1   
   108   99  108 1   
   109  100  109 1   
   110  100  110 1   
   111  100  111 1   
   112  112  113 1   
   113  112  119 1   
   114  113  114 1   
   115  113  116 1   
   116  113  120 1   
   117  114  115 2   
   118  114  126 1   
   119  116  117 1   
   120  116  118 1   
   121  116  121 1   
   122  117  123 1   
   123  117  124 1   
   124  117  125 1   
   125  118  122 1   
   126  126  127 1   
   127  126  133 1   
   128  127  128 1   
   129  127  130 1   
   130  127  134 1   
   131  128  129 2   
   132  128  140 1   
   133  130  131 1   
   134  130  132 1   
   135  130  135 1   
   136  131  137 1   
   137  131  138 1   
   138  131  139 1   
   139  132  136 1   
   140  140  141 1   
   141  140  149 1   
   142  141  142 1   
   143  141  144 1   
   144  141  150 1   
   145  142  143 2   
   146  142  162 1   
   147  144  145 1   
   148  144  151 1   
   149  144  152 1   
   150  145  146 1   
   151  145  153 1   
   152  145  154 1   
   153  146  147 1   
   154  146  155 1   
   155  146  156 1   
   156  147  148 1   
   157  147  157 1   
   158  147  158 1   
   159  148  159 1   
   160  148  160 1   
   161  148  161 1   
   162  162  163 1   
   163  162  171 1   
   164  163  164 1   
   165  163  166 1   
   166  163  172 1   
   167  164  165 2   
   168  164  177 1   
   169  166  167 1   
   170  166  173 1   
   171  166  174 1   
   172  167  168 1   
   173  167  175 1   
   174  167  176 1   
   175  168  169 1   
   176  168  170 1   
   177  177  178 1   
   178  177  182 1   
   179  178  179 1   
   180  178  180 1   
   181  178  181 1   
   182  184  185 1   
   183  184  186 1   
   184  187  188 1   
   185  187  189 1   
@<TRIPOS>SUBSTRUCTURE
     1 MOL         1 TEMP              0 ****  ****    0 ROOT
