@<TRIPOS>MOLECULE
MOL
  175   173     1     0     0
SMALL
resp


@<TRIPOS>ATOM
      1 C1          0.2730    3.7620    5.5720 c3        1 MOL     -0.330561
      2 C2         -0.4310    3.8050    4.1870 c         1 MOL      0.751449
      3 O1          0.2520    4.1750    3.2150 o         1 MOL     -0.566913
      4 H1          1.2220    4.2940    5.5120 hc        1 MOL      0.078436
      5 H2         -0.3640    4.2370    6.3180 hc        1 MOL      0.078436
      6 H3          0.4550    2.7250    5.8560 hc        1 MOL      0.078436
      7 N1         -1.7110    3.5900    3.9790 n         1 MOL     -0.708935
      8 C3         -2.3700    3.3650    2.6560 c3        1 MOL      0.159551
      9 C4         -2.6540    4.6780    1.9280 c         1 MOL      0.683731
     10 O2         -2.7350    5.7380    2.4860 o         1 MOL     -0.554077
     11 C5         -3.6590    2.5750    2.9350 c3        1 MOL     -0.202130
     12 C6         -4.2320    2.1560    1.5930 c         1 MOL      0.640682
     13 O3         -3.4600    1.7370    0.7050 o         1 MOL     -0.630420
     14 O4         -5.4660    2.2010    1.5060 o         1 MOL     -0.630420
     15 H4         -2.4260    3.4730    4.6900 hn        1 MOL      0.326712
     16 H5         -1.6580    2.8700    2.0010 h1        1 MOL      0.076778
     17 H6         -4.3260    3.2350    3.4820 hc        1 MOL      0.028403
     18 H7         -3.4480    1.6710    3.5140 hc        1 MOL      0.028403
     19 N2         -2.9040    4.5030    0.5610 n         1 MOL     -0.654863
     20 C7         -3.5900    5.5010   -0.2250 c3        1 MOL      0.252389
     21 C8         -4.5930    4.9660   -1.2710 c         1 MOL      0.523570
     22 O5         -5.4180    5.7440   -1.7940 o         1 MOL     -0.598370
     23 C9         -2.4510    6.3580   -0.9110 c3        1 MOL     -0.385861
     24 H8         -2.7540    3.5630    0.2280 hn        1 MOL      0.383150
     25 H9         -4.2350    6.1730    0.3440 h1        1 MOL      0.034120
     26 H10        -1.9230    5.7430   -1.6400 hc        1 MOL      0.099101
     27 H11        -2.9330    7.2410   -1.3380 hc        1 MOL      0.099101
     28 H12        -1.6680    6.7280   -0.2540 hc        1 MOL      0.099101
     29 N3         -4.7440    3.6420   -1.4760 n         1 MOL     -0.222159
     30 C10        -5.4990    3.0810   -2.5780 c3        1 MOL      0.032540
     31 C11        -6.5830    2.0510   -2.2020 c         1 MOL      0.435067
     32 O6         -7.3220    1.6520   -3.0960 o         1 MOL     -0.556881
     33 C12        -4.4750    2.4080   -3.4860 c3        1 MOL     -0.182510
     34 C13        -3.5750    1.2630   -2.9200 c         1 MOL      0.740233
     35 O7         -2.3380    1.1220   -3.1990 o         1 MOL     -0.722306
     36 O8         -4.0700    0.4840   -2.0700 o         1 MOL     -0.722306
     37 H13        -4.4180    2.9870   -0.7810 hn        1 MOL      0.046153
     38 H14        -6.0190    3.8920   -3.0970 h1        1 MOL      0.105999
     39 H15        -3.9060    3.2650   -3.8550 hc        1 MOL      0.037512
     40 H16        -4.9160    1.9150   -4.3530 hc        1 MOL      0.037512
     41 N4         -6.8160    1.7780   -0.9110 n         1 MOL     -0.273289
     42 C14        -7.8900    0.9000   -0.3870 c3        1 MOL     -0.078377
     43 C15        -7.6360   -0.5890   -0.8710 c         1 MOL      0.528044
     44 O9         -8.6060   -1.3030   -0.7560 o         1 MOL     -0.581694
     45 H17        -6.2930    2.3100   -0.2310 hn        1 MOL      0.208656
     46 H18        -8.8800    1.2380   -0.6770 h1        1 MOL      0.080470
     47 H19        -7.8860    0.9570    0.6940 h1        1 MOL      0.080470
     48 N5         -6.3820   -0.9830   -1.3650 n         1 MOL     -0.270850
     49 C16        -6.1030   -2.3220   -1.7810 c3        1 MOL      0.113991
     50 C17        -5.8790   -3.2970   -0.6360 c         1 MOL      0.299856
     51 O10        -5.6340   -4.4750   -0.8680 o         1 MOL     -0.484065
     52 C18        -5.0580   -2.2560   -2.9510 c3        1 MOL     -0.465852
     53 C19        -3.5840   -2.2520   -2.5670 c         1 MOL      0.641961
     54 N6         -2.7140   -2.1310   -3.5160 n         1 MOL     -0.632553
     55 O11        -3.1920   -2.3500   -1.4180 o         1 MOL     -0.323769
     56 H20        -5.6860   -0.2840   -1.5620 hn        1 MOL      0.167890
     57 H21        -7.0560   -2.6300   -2.2230 h1        1 MOL      0.096100
     58 H22        -5.2890   -1.3640   -3.5280 hc        1 MOL      0.143860
     59 H23        -5.2640   -3.1260   -3.5670 hc        1 MOL      0.143860
     60 H24        -3.1520   -1.9530   -4.4090 hn        1 MOL      0.323618
     61 H25        -1.7530   -1.9650   -3.2490 hn        1 MOL      0.323618
     62 N7         -5.9870   -2.9520    0.6390 n         1 MOL     -0.131931
     63 C20        -5.8090   -3.7730    1.8460 c3        1 MOL     -0.163420
     64 C21        -4.4340   -4.5330    1.9500 c         1 MOL      0.472200
     65 O12        -4.2850   -5.4840    2.7520 o         1 MOL     -0.577761
     66 H26        -6.2630   -1.9980    0.7910 hn        1 MOL      0.178190
     67 H27        -6.5330   -4.5870    1.8750 h1        1 MOL      0.094744
     68 H28        -5.9050   -3.2240    2.7810 h1        1 MOL      0.094744
     69 N8         -3.4070   -4.1380    1.1600 n         1 MOL      0.026543
     70 C22        -2.0430   -4.6970    1.2470 c3        1 MOL     -0.077997
     71 C23        -0.9430   -3.6270    1.2940 c         1 MOL      0.261012
     72 O13        -1.2940   -2.5520    0.8190 o         1 MOL     -0.329498
     73 C24        -1.6520   -5.5960    0.0370 c3        1 MOL      0.653233
     74 C25        -2.4470   -6.8670    0.1370 c3        1 MOL     -0.488249
     75 O14        -1.9090   -4.9590   -1.2060 oh        1 MOL     -0.609979
     76 H29        -3.4510   -3.3410    0.5490 hn        1 MOL     -0.129213
     77 H30        -2.0100   -5.2930    2.1570 h1        1 MOL      0.045697
     78 H31        -0.6230   -5.9490    0.0820 h1        1 MOL     -0.066538
     79 H32        -1.9730   -4.0040   -1.1050 ho        1 MOL      0.248808
     80 H33        -2.3740   -7.2470   -0.8860 hc        1 MOL      0.101662
     81 H34        -1.9450   -7.4810    0.8820 hc        1 MOL      0.101662
     82 H35        -3.4940   -6.7420    0.3980 hc        1 MOL      0.101662
     83 N9          0.2190   -3.8340    1.8930 n         1 MOL     -0.322064
     84 C26         1.3420   -2.9350    1.9100 c3        1 MOL     -0.198132
     85 C27         2.0700   -3.1010    0.6280 c         1 MOL      0.589257
     86 O15         2.6690   -4.1770    0.3630 o         1 MOL     -0.598488
     87 C28         2.3680   -2.9590    3.1250 c3        1 MOL      0.162191
     88 C29         1.8980   -3.4610    4.5260 c3        1 MOL      0.166519
     89 C30         2.9310   -1.5550    3.2060 c3        1 MOL     -0.223180
     90 C31         3.0770   -4.1020    5.3340 c3        1 MOL     -0.236463
     91 H36         0.3480   -4.7350    2.3330 hn        1 MOL      0.252548
     92 H37         0.8640   -1.9590    1.8140 h1        1 MOL      0.133899
     93 H38         3.2110   -3.5980    2.8630 hc        1 MOL      0.012640
     94 H39         1.1070   -4.2060    4.4720 hc        1 MOL     -0.029912
     95 H40         1.3550   -2.6840    5.0670 hc        1 MOL     -0.029912
     96 H41         2.1630   -0.8570    3.5520 hc        1 MOL      0.032431
     97 H42         3.7240   -1.5460    3.9510 hc        1 MOL      0.032431
     98 H43         3.3050   -1.1210    2.2790 hc        1 MOL      0.032431
     99 H44         3.3230   -4.9810    4.7380 hc        1 MOL      0.047348
    100 H45         3.9520   -3.4470    5.3110 hc        1 MOL      0.047348
    101 H46         2.8250   -4.3390    6.3660 hc        1 MOL      0.047348
    102 N10         2.0620   -2.0530   -0.2220 n         1 MOL     -0.330351
    103 C32         2.9620   -1.8350   -1.3770 c3        1 MOL      0.054492
    104 C33         4.3000   -1.1570   -1.0710 c         1 MOL      0.500503
    105 O16         4.4830   -0.4830    0.0020 o         1 MOL     -0.393504
    106 C34         2.1530   -1.0290   -2.4000 c3        1 MOL     -0.207512
    107 C35         0.6790   -1.6500   -2.6900 c         1 MOL      0.674273
    108 O17        -0.2920   -1.3540   -1.9580 o         1 MOL     -0.653967
    109 O18         0.5250   -2.2300   -3.7960 o         1 MOL     -0.653967
    110 H47         1.5630   -1.2520    0.1250 hn        1 MOL      0.200399
    111 H48         3.1660   -2.8190   -1.8110 h1        1 MOL      0.085623
    112 H49         2.7480   -0.9570   -3.3140 hc        1 MOL      0.050707
    113 H50         2.0560    0.0090   -2.1060 hc        1 MOL      0.050707
    114 N11         5.2560   -1.3390   -1.9680 n         1 MOL     -0.840645
    115 C36         6.6280   -0.9720   -1.5270 c3        1 MOL      0.636567
    116 C37         6.8460    0.5230   -1.3950 c         1 MOL      0.172857
    117 O19         7.6940    0.9010   -0.5680 o         1 MOL     -0.434048
    118 C38         7.6570   -1.6240   -2.4240 c3        1 MOL     -0.254367
    119 C39         9.0840   -1.4050   -2.0260 ca        1 MOL     -0.013496
    120 C40         9.5150   -1.6910   -0.7120 ca        1 MOL     -0.035012
    121 C41         9.9380   -0.8580   -2.9750 ca        1 MOL     -0.035012
    122 C42        10.8040   -1.3010   -0.3280 ca        1 MOL     -0.221260
    123 C43        11.2440   -0.5500   -2.5850 ca        1 MOL     -0.221260
    124 C44        11.6370   -0.6670   -1.2020 ca        1 MOL     -0.023991
    125 H51         5.0690   -1.8200   -2.8410 hn        1 MOL      0.387019
    126 H52         6.8350   -1.3380   -0.5270 h1        1 MOL      0.014059
    127 H53         7.4310   -1.3290   -3.4520 hc        1 MOL      0.066452
    128 H54         7.4240   -2.6770   -2.5150 hc        1 MOL      0.066452
    129 H55         8.8450   -2.2110   -0.0370 ha        1 MOL      0.087447
    130 H56         9.6060   -0.6890   -3.9850 ha        1 MOL      0.087447
    131 H57        11.1380   -1.5220    0.6640 ha        1 MOL      0.126955
    132 H58        11.8370    0.0470   -3.2680 ha        1 MOL      0.126955
    133 H59        12.5480   -0.2560   -0.8100 ha        1 MOL      0.092884
    134 N12         5.9690    1.4020   -2.0250 n         1 MOL     -0.053373
    135 C45         5.9340    2.8290   -1.6540 c3        1 MOL      0.019963
    136 C46         5.3690    3.1980   -0.2880 c         1 MOL      0.311744
    137 O20         5.5630    4.3270    0.1970 o         1 MOL     -0.506132
    138 C47         5.0380    3.5040   -2.7030 c3        1 MOL     -0.013805
    139 C48         5.2880    2.6110   -3.9240 c3        1 MOL     -0.138474
    140 C49         5.3730    1.2420   -3.4100 c3        1 MOL      0.033048
    141 H60         6.9210    3.3120   -1.6400 h1        1 MOL      0.051574
    142 H61         3.9910    3.4960   -2.3990 hc        1 MOL      0.041885
    143 H62         5.3210    4.5570   -2.8260 hc        1 MOL      0.041885
    144 H63         4.4590    2.6530   -4.6340 hc        1 MOL      0.047670
    145 H64         6.2470    2.7640   -4.4070 hc        1 MOL      0.047670
    146 H65         4.3660    0.8700   -3.2030 h1        1 MOL      0.040882
    147 H66         5.9420    0.6500   -4.1200 h1        1 MOL      0.040882
    148 N13         4.6790    2.2240    0.3080 n         1 MOL     -0.201698
    149 C50         4.0800    2.5140    1.6980 c3        1 MOL     -0.024382
    150 C51         4.8740    1.9280    2.8800 c         1 MOL      0.445250
    151 O21         4.9010    2.5110    3.9480 o         1 MOL     -0.548355
    152 C52         2.6250    2.0120    1.7280 c3        1 MOL      0.033924
    153 C53         1.7320    2.3270    0.4430 c3        1 MOL      0.026704
    154 C54         0.4310    1.4690    0.3310 c         1 MOL      0.558265
    155 O22        -0.5970    1.9830   -0.1000 o         1 MOL     -0.719580
    156 O23         0.4620    0.3420    0.8010 o         1 MOL     -0.719580
    157 H67         4.4020    1.3940   -0.1920 hn        1 MOL      0.208375
    158 H68         4.0040    3.5950    1.8310 h1        1 MOL      0.085446
    159 H69         2.1430    2.3600    2.6380 hc        1 MOL      0.008442
    160 H70         2.6990    0.9220    1.7800 hc        1 MOL      0.008442
    161 H71         2.3560    2.0190   -0.4020 hc        1 MOL      0.023811
    162 H72         1.5400    3.3960    0.3580 hc        1 MOL      0.023811
    163 N14         5.5440    0.8360    2.5260 n         1 MOL     -0.082553
    164 C55         6.5870    0.1360    3.3140 c3        1 MOL     -0.157572
    165 H73         6.6120    0.5430    4.3250 h1        1 MOL      0.073338
    166 H74         6.3580   -0.9280    3.3570 h1        1 MOL      0.073338
    167 H75         7.5590    0.2810    2.8410 h1        1 MOL      0.073338
    168 H76         5.3940    0.5660    1.5690 hn        1 MOL      0.060292
    169 Ca1        -2.0390   -0.1640   -0.4230 Ca        1 MOL      1.687007
    170 O24        -1.4300   -0.1750    2.6430 oh        1 MOL     -0.795522
    171 H77        -1.4450    0.3330    3.4520 ho        1 MOL      0.393136
    172 H78        -0.6870    0.1820    2.1460 ho        1 MOL      0.393136
    173 O25        -3.8540   -0.8840    1.4590 oh        1 MOL     -0.795522
    174 H79        -3.4640   -1.0070    2.3170 ho        1 MOL      0.393136
    175 H80        -4.7150   -0.4980    1.6420 ho        1 MOL      0.393136
@<TRIPOS>BOND
     1    1    2 1   
     2    1    4 1   
     3    1    5 1   
     4    1    6 1   
     5    2    3 2   
     6    2    7 1   
     7    7    8 1   
     8    7   15 1   
     9    8    9 1   
    10    8   11 1   
    11    8   16 1   
    12    9   10 2   
    13    9   19 1   
    14   11   12 1   
    15   11   17 1   
    16   11   18 1   
    17   12   13 1   
    18   12   14 1   
    19   19   20 1   
    20   19   24 1   
    21   20   21 1   
    22   20   23 1   
    23   20   25 1   
    24   21   22 2   
    25   21   29 1   
    26   23   26 1   
    27   23   27 1   
    28   23   28 1   
    29   29   30 1   
    30   29   37 1   
    31   30   31 1   
    32   30   33 1   
    33   30   38 1   
    34   31   32 2   
    35   31   41 1   
    36   33   34 1   
    37   33   39 1   
    38   33   40 1   
    39   34   35 1   
    40   34   36 1   
    41   41   42 1   
    42   41   45 1   
    43   42   43 1   
    44   42   46 1   
    45   42   47 1   
    46   43   44 2   
    47   43   48 1   
    48   48   49 1   
    49   48   56 1   
    50   49   50 1   
    51   49   52 1   
    52   49   57 1   
    53   50   51 2   
    54   50   62 1   
    55   52   53 1   
    56   52   58 1   
    57   52   59 1   
    58   53   54 1   
    59   53   55 2   
    60   54   60 1   
    61   54   61 1   
    62   62   63 1   
    63   62   66 1   
    64   63   64 1   
    65   63   67 1   
    66   63   68 1   
    67   64   65 2   
    68   64   69 1   
    69   69   70 1   
    70   69   76 1   
    71   70   71 1   
    72   70   73 1   
    73   70   77 1   
    74   71   72 2   
    75   71   83 1   
    76   73   74 1   
    77   73   75 1   
    78   73   78 1   
    79   74   80 1   
    80   74   81 1   
    81   74   82 1   
    82   75   79 1   
    83   83   84 1   
    84   83   91 1   
    85   84   85 1   
    86   84   87 1   
    87   84   92 1   
    88   85   86 2   
    89   85  102 1   
    90   87   88 1   
    91   87   89 1   
    92   87   93 1   
    93   88   90 1   
    94   88   94 1   
    95   88   95 1   
    96   89   96 1   
    97   89   97 1   
    98   89   98 1   
    99   90   99 1   
   100   90  100 1   
   101   90  101 1   
   102  102  103 1   
   103  102  110 1   
   104  103  104 1   
   105  103  106 1   
   106  103  111 1   
   107  104  105 2   
   108  104  114 1   
   109  106  107 1   
   110  106  112 1   
   111  106  113 1   
   112  107  108 1   
   113  107  109 1   
   114  114  115 1   
   115  114  125 1   
   116  115  116 1   
   117  115  118 1   
   118  115  126 1   
   119  116  117 2   
   120  116  134 1   
   121  118  119 1   
   122  118  127 1   
   123  118  128 1   
   124  119  120 ar  
   125  119  121 ar  
   126  120  122 ar  
   127  120  129 1   
   128  121  123 ar  
   129  121  130 1   
   130  122  124 ar  
   131  122  131 1   
   132  123  124 ar  
   133  123  132 1   
   134  124  133 1   
   135  134  135 1   
   136  134  140 1   
   137  135  136 1   
   138  135  138 1   
   139  135  141 1   
   140  136  137 2   
   141  136  148 1   
   142  138  139 1   
   143  138  142 1   
   144  138  143 1   
   145  139  140 1   
   146  139  144 1   
   147  139  145 1   
   148  140  146 1   
   149  140  147 1   
   150  148  149 1   
   151  148  157 1   
   152  149  150 1   
   153  149  152 1   
   154  149  158 1   
   155  150  151 2   
   156  150  163 1   
   157  152  153 1   
   158  152  159 1   
   159  152  160 1   
   160  153  154 1   
   161  153  161 1   
   162  153  162 1   
   163  154  155 1   
   164  154  156 1   
   165  163  164 1   
   166  163  168 1   
   167  164  165 1   
   168  164  166 1   
   169  164  167 1   
   170  170  171 1   
   171  170  172 1   
   172  173  174 1   
   173  173  175 1   
@<TRIPOS>SUBSTRUCTURE
     1 MOL         1 TEMP              0 ****  ****    0 ROOT
