@<TRIPOS>MOLECULE
MOL
  169   169     1     0     0
SMALL
resp


@<TRIPOS>ATOM
      1 C1         -0.0680    3.4840    5.7700 c3        1 MOL     -0.421174
      2 C2         -0.5280    3.3390    4.2960 c         1 MOL      0.756016
      3 O1          0.2130    3.6750    3.4120 o         1 MOL     -0.537639
      4 H1         -0.4940    4.3920    6.1970 hc        1 MOL      0.103177
      5 H2         -0.4050    2.6200    6.3430 hc        1 MOL      0.103177
      6 H3          1.0200    3.5430    5.8080 hc        1 MOL      0.103177
      7 N1         -1.7920    2.8280    4.0190 n         1 MOL     -0.635798
      8 C3         -2.2920    2.5440    2.6920 c3        1 MOL      0.037766
      9 C4         -2.5460    3.8540    1.8800 c         1 MOL      0.672578
     10 O2         -3.2090    4.7540    2.4070 o         1 MOL     -0.615359
     11 C5         -3.5470    1.6980    2.7380 c3        1 MOL      0.032635
     12 C6         -3.8420    0.9270    1.4730 c         1 MOL      0.594024
     13 O3         -4.8490    0.1650    1.4170 o         1 MOL     -0.657675
     14 O4         -3.1100    1.1620    0.4660 o         1 MOL     -0.657675
     15 H4         -2.3700    2.5050    4.7870 hn        1 MOL      0.312986
     16 H5         -1.4980    2.0500    2.1350 h1        1 MOL      0.012226
     17 H6         -4.4230    2.2920    3.0170 hc        1 MOL     -0.005768
     18 H7         -3.5400    0.9500    3.5300 hc        1 MOL     -0.005768
     19 N2         -1.8650    4.0450    0.7000 n         1 MOL     -0.476556
     20 C7         -1.9780    5.2290   -0.1980 c3        1 MOL      0.408824
     21 C8         -2.8880    5.0010   -1.4190 c         1 MOL      0.314164
     22 O5         -3.1440    5.9820   -2.1380 o         1 MOL     -0.567673
     23 C9         -0.6020    5.8600   -0.5370 c3        1 MOL     -0.395341
     24 H8         -1.4860    3.2500    0.2240 hn        1 MOL      0.324259
     25 H9         -2.4710    6.0180    0.3610 h1        1 MOL     -0.021930
     26 H10        -0.0710    5.1890   -1.2130 hc        1 MOL      0.097940
     27 H11        -0.7460    6.7250   -1.1680 hc        1 MOL      0.097940
     28 H12        -0.0960    5.9530    0.4220 hc        1 MOL      0.097940
     29 N3         -3.3260    3.8060   -1.7260 n         1 MOL     -0.197729
     30 C10        -4.2790    3.5400   -2.8930 c3        1 MOL      0.126258
     31 C11        -5.6690    2.9490   -2.4040 c         1 MOL      0.360933
     32 O6         -6.5570    2.6230   -3.2190 o         1 MOL     -0.512246
     33 C12        -3.6930    2.6170   -3.9650 c3        1 MOL     -0.011431
     34 C13        -3.2240    1.3040   -3.3560 c         1 MOL      0.837439
     35 O7         -3.8830    0.6310   -2.5800 o         1 MOL     -0.800912
     36 O8         -2.0830    0.8730   -3.6970 o         1 MOL     -0.800912
     37 H13        -3.0900    3.0110   -1.1420 hn        1 MOL      0.082000
     38 H14        -4.5030    4.4270   -3.4940 h1        1 MOL      0.061730
     39 H15        -2.8940    3.0950   -4.5400 hc        1 MOL     -0.005705
     40 H16        -4.5000    2.4380   -4.6870 hc        1 MOL     -0.005705
     41 N4         -5.7880    2.8190   -1.0490 n         1 MOL     -0.367479
     42 C14        -6.9510    2.1840   -0.4160 c3        1 MOL      0.061805
     43 C15        -7.3650    0.8100   -0.7760 c         1 MOL      0.455442
     44 O9         -8.4920    0.4900   -0.4030 o         1 MOL     -0.606869
     45 H17        -5.0250    3.0410   -0.4210 hn        1 MOL      0.198992
     46 H18        -7.8320    2.8150   -0.4780 h1        1 MOL      0.063330
     47 H19        -6.8330    2.1520    0.6630 h1        1 MOL      0.063330
     48 N5         -6.5600   -0.1020   -1.3470 n         1 MOL     -0.258974
     49 C16        -7.0430   -1.4350   -1.6760 c3        1 MOL     -0.006293
     50 C17        -7.1530   -2.3730   -0.4480 c         1 MOL      0.428540
     51 O10        -7.7670   -3.4380   -0.6130 o         1 MOL     -0.582918
     52 C18        -6.2310   -2.0020   -2.8480 c3        1 MOL     -0.278890
     53 C19        -4.9630   -2.6910   -2.3910 c         1 MOL      0.768244
     54 N6         -4.7090   -3.9400   -2.6920 n         1 MOL     -0.772588
     55 O11        -4.1670   -2.1160   -1.6250 o         1 MOL     -0.711790
     56 H20        -5.6430    0.2030   -1.6390 hn        1 MOL      0.303666
     57 H21        -8.0830   -1.2870   -1.9950 h1        1 MOL      0.116378
     58 H22        -5.9650   -1.1800   -3.5110 hc        1 MOL      0.090644
     59 H23        -6.8330   -2.7480   -3.3600 hc        1 MOL      0.090644
     60 H24        -5.2520   -4.5510   -3.2890 hn        1 MOL      0.358426
     61 H25        -3.9150   -4.3010   -2.1880 hn        1 MOL      0.358426
     62 N7         -6.6830   -2.0260    0.7040 n         1 MOL     -0.066232
     63 C20        -6.6200   -2.9670    1.8810 c3        1 MOL     -0.340743
     64 C21        -5.3780   -3.7870    2.1850 c         1 MOL      0.574441
     65 O12        -5.2930   -4.4960    3.2070 o         1 MOL     -0.581986
     66 H26        -6.2040   -1.1370    0.7600 hn        1 MOL      0.176380
     67 H27        -7.4210   -3.7010    1.7920 h1        1 MOL      0.140505
     68 H28        -6.7560   -2.3400    2.7520 h1        1 MOL      0.140505
     69 N8         -4.2780   -3.5710    1.4300 n         1 MOL     -0.159336
     70 C22        -2.9210   -4.1820    1.6580 c3        1 MOL     -0.155084
     71 C23        -1.8240   -3.1100    1.4780 c         1 MOL      0.563852
     72 O13        -1.9960   -2.0950    0.7280 o         1 MOL     -0.596611
     73 C24        -2.6280   -5.3840    0.7060 c3        1 MOL      0.304682
     74 C25        -3.8070   -6.3830    0.6200 c3        1 MOL     -0.340081
     75 O14        -2.5530   -4.9390   -0.6330 oh        1 MOL     -0.623780
     76 H29        -4.2950   -2.8690    0.7030 hn        1 MOL      0.207987
     77 H30        -2.9470   -4.4540    2.7110 h1        1 MOL      0.098069
     78 H31        -1.7230   -5.8890    1.0420 h1        1 MOL      0.024177
     79 H32        -2.6280   -5.7430   -1.1520 ho        1 MOL      0.413628
     80 H33        -4.5370   -6.1090   -0.1490 hc        1 MOL      0.081239
     81 H34        -3.4480   -7.3730    0.3430 hc        1 MOL      0.081239
     82 H35        -4.3200   -6.4570    1.5850 hc        1 MOL      0.081239
     83 N9         -0.6030   -3.2670    2.1140 n         1 MOL     -0.346871
     84 C26         0.5150   -2.3090    2.0510 c3        1 MOL      0.075830
     85 C27         1.5510   -2.8490    1.0880 c         1 MOL      0.435568
     86 O15         1.9870   -3.9890    1.2170 o         1 MOL     -0.607154
     87 C28         1.1140   -2.1140    3.4340 c3        1 MOL      0.143623
     88 C29         0.0430   -1.4580    4.3860 c3        1 MOL     -0.155368
     89 C30         2.2970   -1.1200    3.4200 c3        1 MOL     -0.280270
     90 C31        -0.8460   -0.2930    3.7750 c3        1 MOL      0.280723
     91 H36        -0.4790   -4.0500    2.7330 hn        1 MOL      0.234749
     92 H37         0.1400   -1.4340    1.5300 h1        1 MOL      0.045146
     93 H38         1.4190   -3.0540    3.8940 hc        1 MOL      0.013106
     94 H39         0.5960   -1.0690    5.2410 hc        1 MOL     -0.004183
     95 H40        -0.6560   -2.2110    4.7480 hc        1 MOL     -0.004183
     96 H41         2.5760   -0.7190    4.3920 hc        1 MOL      0.057197
     97 H42         3.1820   -1.6500    3.0600 hc        1 MOL      0.057197
     98 H43         2.1340   -0.2070    2.8410 hc        1 MOL      0.057197
     99 H44        -1.3970    0.1190    4.6200 hc        1 MOL     -0.061449
    100 H45        -0.2100    0.5200    3.4210 hc        1 MOL     -0.061449
    101 H46        -1.5220   -0.7650    3.0640 hc        1 MOL     -0.061449
    102 N10         1.9340   -1.9390    0.2200 n         1 MOL      0.015200
    103 C32         2.8910   -2.1380   -0.8090 c3        1 MOL      0.126669
    104 C33         4.2460   -1.4880   -0.4230 c         1 MOL      0.383823
    105 O16         4.3990   -0.7970    0.5450 o         1 MOL     -0.436371
    106 C34         2.4730   -1.6220   -2.2150 c3        1 MOL      0.012496
    107 C35         1.0690   -2.1790   -2.5990 c         1 MOL      0.582231
    108 O17         1.1250   -2.9890   -3.5000 o         1 MOL     -0.673830
    109 O18         0.0310   -1.8040   -2.0130 o         1 MOL     -0.673830
    110 H47         1.4240   -1.0800    0.1420 hn        1 MOL     -0.018618
    111 H48         2.9930   -3.2210   -0.8730 h1        1 MOL      0.017743
    112 H49         3.2910   -1.9410   -2.8640 hc        1 MOL      0.000883
    113 H50         2.5410   -0.5330   -2.2220 hc        1 MOL      0.000883
    114 N11         5.3420   -1.9050   -1.1130 n         1 MOL     -0.673643
    115 C36         6.7450   -1.5770   -0.7220 c3        1 MOL      0.533478
    116 C37         7.0350   -0.0970   -0.8080 c         1 MOL      0.219077
    117 O19         7.5820    0.3900    0.1820 o         1 MOL     -0.466337
    118 C38         7.7750   -2.3830   -1.5300 c3        1 MOL     -0.331725
    119 C39         9.2160   -2.2850   -1.0930 ca        1 MOL      0.249093
    120 C40         9.6360   -2.3820    0.2380 ca        1 MOL     -0.271680
    121 C41        10.1840   -2.0760   -2.1160 ca        1 MOL     -0.271680
    122 C42        10.9760   -2.0100    0.5640 ca        1 MOL     -0.054299
    123 C43        11.5500   -1.8860   -1.8060 ca        1 MOL     -0.054299
    124 C44        11.9270   -1.8160   -0.4680 ca        1 MOL     -0.160122
    125 H51         5.2930   -2.6470   -1.7960 hn        1 MOL      0.301093
    126 H52         6.8200   -1.8950    0.3270 h1        1 MOL      0.028990
    127 H53         7.7310   -2.0930   -2.5760 hc        1 MOL      0.073029
    128 H54         7.4630   -3.4230   -1.3710 hc        1 MOL      0.073029
    129 H55         8.9340   -2.5640    1.0480 ha        1 MOL      0.140057
    130 H56         9.8520   -1.9840   -3.1390 ha        1 MOL      0.140057
    131 H57        11.3040   -1.9630    1.5920 ha        1 MOL      0.102119
    132 H58        12.3750   -1.8530   -2.5000 ha        1 MOL      0.102119
    133 H59        12.9570   -1.5470   -0.2970 ha        1 MOL      0.104863
    134 N12         6.4620    0.6440   -1.7720 n         1 MOL      0.027775
    135 C45         6.6240    2.1240   -1.7610 c3        1 MOL      0.054357
    136 C46         5.8700    2.7500   -0.5100 c         1 MOL      0.253484
    137 O20         6.3940    3.6170    0.2160 o         1 MOL     -0.504742
    138 C47         6.0590    2.6700   -3.1090 c3        1 MOL     -0.062813
    139 C48         6.0690    1.4650   -4.0120 c3        1 MOL      0.036872
    140 C49         6.1380    0.2210   -3.1370 c3        1 MOL      0.019189
    141 H60         7.6850    2.3260   -1.6470 h1        1 MOL      0.041324
    142 H61         5.0390    3.0490   -3.0860 hc        1 MOL      0.045954
    143 H62         6.6480    3.5350   -3.4150 hc        1 MOL      0.045954
    144 H63         5.2430    1.5100   -4.7160 hc        1 MOL     -0.000796
    145 H64         6.9680    1.5360   -4.6080 hc        1 MOL     -0.000796
    146 H65         5.1960   -0.3120   -3.2490 h1        1 MOL      0.003585
    147 H66         6.9240   -0.4140   -3.5560 h1        1 MOL      0.003585
    148 N13         4.7760    2.1630   -0.1050 n         1 MOL     -0.132166
    149 C50         3.9880    2.5530    1.0670 c3        1 MOL     -0.214870
    150 C51         4.6070    2.1050    2.4250 c         1 MOL      0.464767
    151 O21         4.3220    2.7810    3.4440 o         1 MOL     -0.587743
    152 C52         2.5050    2.1080    0.9460 c3        1 MOL      0.217882
    153 C53         1.7460    2.4880   -0.3270 c3        1 MOL     -0.159476
    154 C54         0.4560    1.6180   -0.4810 c         1 MOL      0.848399
    155 O22         0.4790    0.4130   -0.1830 o         1 MOL     -0.804630
    156 O23        -0.6800    2.0690   -0.7920 o         1 MOL     -0.804630
    157 H67         4.4510    1.4010   -0.6980 hn        1 MOL      0.186349
    158 H68         3.9590    3.6380    1.1310 h1        1 MOL      0.128243
    159 H69         1.9240    2.5340    1.7670 hc        1 MOL      0.036114
    160 H70         2.5350    1.0250    1.0440 hc        1 MOL      0.036114
    161 H71         2.3500    2.3950   -1.2280 hc        1 MOL     -0.002608
    162 H72         1.3910    3.5060   -0.1470 hc        1 MOL     -0.002608
    163 N14         5.4400    1.0870    2.4110 n         1 MOL      0.026493
    164 C55         6.3300    0.7020    3.4630 c3        1 MOL     -0.181855
    165 H73         6.2370    1.4040    4.2920 h1        1 MOL      0.064786
    166 H74         6.0750   -0.3010    3.8070 h1        1 MOL      0.064786
    167 H75         7.3550    0.7100    3.0940 h1        1 MOL      0.064786
    168 H76         5.6260    0.6610    1.5090 hn        1 MOL      0.087463
    169 Ca1        -1.9030   -0.4070   -1.1630 Ca        1 MOL      1.762667
@<TRIPOS>BOND
     1    1    2 1   
     2    1    4 1   
     3    1    5 1   
     4    1    6 1   
     5    2    3 2   
     6    2    7 1   
     7    7    8 1   
     8    7   15 1   
     9    8    9 1   
    10    8   11 1   
    11    8   16 1   
    12    9   10 2   
    13    9   19 1   
    14   11   12 1   
    15   11   17 1   
    16   11   18 1   
    17   12   13 1   
    18   12   14 1   
    19   19   20 1   
    20   19   24 1   
    21   20   21 1   
    22   20   23 1   
    23   20   25 1   
    24   21   22 2   
    25   21   29 1   
    26   23   26 1   
    27   23   27 1   
    28   23   28 1   
    29   29   30 1   
    30   29   37 1   
    31   30   31 1   
    32   30   33 1   
    33   30   38 1   
    34   31   32 2   
    35   31   41 1   
    36   33   34 1   
    37   33   39 1   
    38   33   40 1   
    39   34   35 1   
    40   34   36 1   
    41   41   42 1   
    42   41   45 1   
    43   42   43 1   
    44   42   46 1   
    45   42   47 1   
    46   43   44 2   
    47   43   48 1   
    48   48   49 1   
    49   48   56 1   
    50   49   50 1   
    51   49   52 1   
    52   49   57 1   
    53   50   51 2   
    54   50   62 1   
    55   52   53 1   
    56   52   58 1   
    57   52   59 1   
    58   53   54 1   
    59   53   55 2   
    60   54   60 1   
    61   54   61 1   
    62   62   63 1   
    63   62   66 1   
    64   63   64 1   
    65   63   67 1   
    66   63   68 1   
    67   64   65 2   
    68   64   69 1   
    69   69   70 1   
    70   69   76 1   
    71   70   71 1   
    72   70   73 1   
    73   70   77 1   
    74   71   72 2   
    75   71   83 1   
    76   73   74 1   
    77   73   75 1   
    78   73   78 1   
    79   74   80 1   
    80   74   81 1   
    81   74   82 1   
    82   75   79 1   
    83   83   84 1   
    84   83   91 1   
    85   84   85 1   
    86   84   87 1   
    87   84   92 1   
    88   85   86 2   
    89   85  102 1   
    90   87   88 1   
    91   87   89 1   
    92   87   93 1   
    93   88   90 1   
    94   88   94 1   
    95   88   95 1   
    96   89   96 1   
    97   89   97 1   
    98   89   98 1   
    99   90   99 1   
   100   90  100 1   
   101   90  101 1   
   102  102  103 1   
   103  102  110 1   
   104  103  104 1   
   105  103  106 1   
   106  103  111 1   
   107  104  105 2   
   108  104  114 1   
   109  106  107 1   
   110  106  112 1   
   111  106  113 1   
   112  107  108 1   
   113  107  109 1   
   114  114  115 1   
   115  114  125 1   
   116  115  116 1   
   117  115  118 1   
   118  115  126 1   
   119  116  117 2   
   120  116  134 1   
   121  118  119 1   
   122  118  127 1   
   123  118  128 1   
   124  119  120 ar  
   125  119  121 ar  
   126  120  122 ar  
   127  120  129 1   
   128  121  123 ar  
   129  121  130 1   
   130  122  124 ar  
   131  122  131 1   
   132  123  124 ar  
   133  123  132 1   
   134  124  133 1   
   135  134  135 1   
   136  134  140 1   
   137  135  136 1   
   138  135  138 1   
   139  135  141 1   
   140  136  137 2   
   141  136  148 1   
   142  138  139 1   
   143  138  142 1   
   144  138  143 1   
   145  139  140 1   
   146  139  144 1   
   147  139  145 1   
   148  140  146 1   
   149  140  147 1   
   150  148  149 1   
   151  148  157 1   
   152  149  150 1   
   153  149  152 1   
   154  149  158 1   
   155  150  151 2   
   156  150  163 1   
   157  152  153 1   
   158  152  159 1   
   159  152  160 1   
   160  153  154 1   
   161  153  161 1   
   162  153  162 1   
   163  154  155 1   
   164  154  156 1   
   165  163  164 1   
   166  163  168 1   
   167  164  165 1   
   168  164  166 1   
   169  164  167 1   
@<TRIPOS>SUBSTRUCTURE
     1 MOL         1 TEMP              0 ****  ****    0 ROOT
