@<TRIPOS>MOLECULE
MOL
  182   178     1     0     0
SMALL
resp


@<TRIPOS>ATOM
      1 C1          2.3670    2.4570    5.2440 c3        1 MOL     -0.235633
      2 C2          1.5490    2.6310    3.9610 c         1 MOL      0.665348
      3 O1          2.2200    2.7350    2.9540 o         1 MOL     -0.588727
      4 H1          2.2490    1.4380    5.6140 hc        1 MOL      0.058575
      5 H2          3.4190    2.6470    5.0340 hc        1 MOL      0.058575
      6 H3          2.0140    3.1600    5.9990 hc        1 MOL      0.058575
      7 N1          0.2360    2.5650    3.9590 n         1 MOL     -0.497539
      8 C3         -0.6060    2.3040    2.7390 c3        1 MOL      0.027765
      9 C4         -0.8120    3.5790    1.9240 c         1 MOL      0.466339
     10 O2         -1.4480    4.4550    2.4880 o         1 MOL     -0.504453
     11 C5         -1.9240    1.6690    3.1990 c3        1 MOL     -0.213372
     12 C6         -2.9220    1.4010    2.0650 c         1 MOL      0.821878
     13 O3         -2.5350    1.3900    0.8610 o         1 MOL     -0.724783
     14 O4         -4.0970    1.1890    2.3520 o         1 MOL     -0.724783
     15 H4         -0.2260    2.5470    4.8530 hn        1 MOL      0.306178
     16 H5          0.0400    1.6050    2.1890 h1        1 MOL      0.067508
     17 H6         -2.3770    2.3950    3.8840 hc        1 MOL      0.057494
     18 H7         -1.7090    0.7300    3.7220 hc        1 MOL      0.057494
     19 N2         -0.2140    3.7950    0.6990 n         1 MOL     -0.126822
     20 C7         -0.1990    5.0180   -0.1230 c3        1 MOL     -0.011312
     21 C8         -1.5480    5.3620   -0.6000 c         1 MOL      0.412673
     22 O5         -1.8200    6.6010   -0.6250 o         1 MOL     -0.532999
     23 C9          1.0170    4.8850   -1.0740 c3        1 MOL     -0.001050
     24 C10         2.4030    5.5660   -0.5760 c3        1 MOL     -0.307893
     25 C11         3.5540    5.5060   -1.5240 c3        1 MOL      0.099467
     26 C12         4.6430    6.4140   -1.1040 c3        1 MOL      0.093062
     27 N3          5.7690    6.4800   -2.0580 n4        1 MOL     -0.475369
     28 H8          0.2620    3.0050    0.2960 hn        1 MOL     -0.002437
     29 H9         -0.0570    5.8070    0.6250 h1        1 MOL      0.079702
     30 H10         0.7430    5.3820   -2.0030 hc        1 MOL      0.055930
     31 H11         1.1590    3.8300   -1.3240 hc        1 MOL      0.055930
     32 H12         2.8310    5.0920    0.3110 hc        1 MOL      0.110915
     33 H13         2.2040    6.6400   -0.5490 hc        1 MOL      0.110915
     34 H14         3.1850    5.6880   -2.5310 hc        1 MOL     -0.003094
     35 H15         3.8950    4.4680   -1.5680 hc        1 MOL     -0.003094
     36 H16         5.1110    6.0730   -0.1840 hx        1 MOL      0.078386
     37 H17         4.3500    7.4290   -0.8300 hx        1 MOL      0.078386
     38 H18         6.0630    5.5890   -2.4250 hn        1 MOL      0.357564
     39 H19         5.4190    7.1260   -2.7520 hn        1 MOL      0.357564
     40 H20         6.5050    6.9630   -1.5550 hn        1 MOL      0.357564
     41 N4         -2.3720    4.3980   -1.0250 n         1 MOL     -0.382708
     42 C13        -3.5670    4.5860   -1.8810 c3        1 MOL      0.118945
     43 C14        -4.9000    4.3740   -1.1920 c         1 MOL      0.399172
     44 O6         -5.9330    4.7000   -1.8130 o         1 MOL     -0.519022
     45 C15        -3.4870    3.8580   -3.2290 c3        1 MOL     -0.293495
     46 C16        -3.3760    2.3300   -3.1970 c         1 MOL      0.928942
     47 O7         -3.2310    1.7600   -4.3430 o         1 MOL     -0.770923
     48 O8         -3.3070    1.7500   -2.1310 o         1 MOL     -0.770923
     49 H21        -2.0740    3.4450   -0.9250 hn        1 MOL      0.329290
     50 H22        -3.6280    5.6370   -2.1540 h1        1 MOL      0.086125
     51 H23        -2.5620    4.1540   -3.7250 hc        1 MOL      0.059275
     52 H24        -4.3880    4.0710   -3.7970 hc        1 MOL      0.059275
     53 N5         -4.8410    3.9120    0.0620 n         1 MOL     -0.224569
     54 C17        -5.9760    3.6520    0.9590 c3        1 MOL     -0.208460
     55 C18        -6.6640    2.3280    0.6250 c         1 MOL      0.557572
     56 O9         -7.8590    2.2270    0.9240 o         1 MOL     -0.596918
     57 H25        -3.9030    3.7360    0.3990 hn        1 MOL      0.212028
     58 H26        -6.7340    4.4400    0.8740 h1        1 MOL      0.123155
     59 H27        -5.6720    3.5630    2.0110 h1        1 MOL      0.123155
     60 N6         -6.0240    1.3830   -0.0210 n         1 MOL     -0.193275
     61 C19        -6.7090    0.1580   -0.4950 c3        1 MOL     -0.061994
     62 C20        -6.6890   -0.9390    0.5450 c         1 MOL      0.431356
     63 O10        -7.3060   -1.9990    0.2470 o         1 MOL     -0.565705
     64 C21        -5.9730   -0.3510   -1.8100 c3        1 MOL     -0.230096
     65 C22        -4.8160   -1.2940   -1.5970 c         1 MOL      0.633420
     66 N7         -4.8080   -2.4790   -2.1300 n         1 MOL     -0.699944
     67 O11        -3.9580   -0.9850   -0.8230 o         1 MOL     -0.553302
     68 H28        -5.0460    1.4430   -0.2830 hn        1 MOL      0.174012
     69 H29        -7.7280    0.4670   -0.7520 h1        1 MOL      0.139309
     70 H30        -5.6330    0.5450   -2.3220 hc        1 MOL      0.088222
     71 H31        -6.7560   -0.8650   -2.3730 hc        1 MOL      0.088222
     72 H32        -5.4770   -2.9080   -2.7420 hn        1 MOL      0.337449
     73 H33        -4.2690   -3.1760   -1.6260 hn        1 MOL      0.337449
     74 N8         -6.1460   -0.6670    1.6990 n         1 MOL     -0.235641
     75 C23        -6.1690   -1.6270    2.8540 c3        1 MOL     -0.166985
     76 C24        -5.0690   -2.7830    2.8480 c         1 MOL      0.478508
     77 O12        -4.9960   -3.5200    3.8410 o         1 MOL     -0.517111
     78 H34        -5.7450    0.2390    1.8550 hn        1 MOL      0.291789
     79 H35        -7.1500   -2.0880    2.9450 h1        1 MOL      0.120722
     80 H36        -6.1240   -1.1070    3.8100 h1        1 MOL      0.120722
     81 N9         -4.1850   -2.8020    1.7860 n         1 MOL     -0.257562
     82 C25        -2.9030   -3.5650    1.8550 c3        1 MOL      0.127644
     83 C26        -1.6350   -2.8910    1.4170 c         1 MOL      0.601956
     84 O13        -1.6630   -1.7750    0.8170 o         1 MOL     -0.738336
     85 C27        -3.0320   -4.9410    1.1990 c3        1 MOL     -0.204256
     86 C28        -3.4840   -4.9380   -0.2200 ca        1 MOL      0.128058
     87 C29        -2.6050   -4.8120   -1.3400 ca        1 MOL     -0.190641
     88 C30        -4.8670   -5.3100   -0.4880 ca        1 MOL     -0.190641
     89 C31        -3.0570   -5.0670   -2.6420 ca        1 MOL     -0.254220
     90 C32        -5.2880   -5.5760   -1.8440 ca        1 MOL     -0.254220
     91 C33        -4.3460   -5.5620   -2.8810 ca        1 MOL      0.326835
     92 O14        -4.8140   -5.8280   -4.1580 oh        1 MOL     -0.524322
     93 H37        -4.2840   -2.1760    1.0010 hn        1 MOL      0.157699
     94 H38        -2.7560   -3.7050    2.9340 h1        1 MOL      0.030153
     95 H39        -3.8210   -5.3890    1.8020 hc        1 MOL      0.065613
     96 H40        -2.0690   -5.4440    1.3710 hc        1 MOL      0.065613
     97 H41        -1.6030   -4.4590   -1.2100 ha        1 MOL      0.171350
     98 H42        -5.5340   -5.5320    0.3230 ha        1 MOL      0.171350
     99 H43        -2.4150   -4.7840   -3.4580 ha        1 MOL      0.154015
    100 H44        -6.3230   -5.8710   -1.9360 ha        1 MOL      0.154015
    101 H45        -5.7540   -6.0540   -4.1570 ho        1 MOL      0.387270
    102 N10        -0.4760   -3.3910    1.7690 n         1 MOL     -0.232891
    103 C34         0.8040   -2.8220    1.4700 c3        1 MOL     -0.486867
    104 C35         1.6600   -3.6910    0.6110 c         1 MOL      0.549000
    105 O15         1.4770   -4.9180    0.4990 o         1 MOL     -0.550250
    106 C36         1.5150   -2.3010    2.7840 c3        1 MOL      0.011301
    107 C37         2.0220   -3.4730    3.6350 c3        1 MOL     -0.156461
    108 C38         0.5240   -1.3180    3.5530 c3        1 MOL     -0.115999
    109 C39         2.6550   -3.0120    4.9360 c3        1 MOL     -0.214240
    110 H46        -0.3730   -4.1620    2.4170 hn        1 MOL      0.260881
    111 H47         0.6100   -1.9110    0.9110 h1        1 MOL      0.279222
    112 H48         2.4190   -1.7740    2.4810 hc        1 MOL      0.013985
    113 H49         2.8120   -4.0460    3.1510 hc        1 MOL      0.105431
    114 H50         1.1380   -4.0730    3.8410 hc        1 MOL      0.105431
    115 H51         0.9340   -0.6700    4.3300 hc        1 MOL      0.056269
    116 H52         0.1370   -0.6350    2.7930 hc        1 MOL      0.056269
    117 H53        -0.1920   -1.9290    4.1030 hc        1 MOL      0.056269
    118 H54         3.5770   -2.4760    4.7510 hc        1 MOL      0.066901
    119 H55         1.8850   -2.6480    5.6230 hc        1 MOL      0.066901
    120 H56         2.9230   -3.9260    5.4720 hc        1 MOL      0.066901
    121 N11         2.5850   -3.0530   -0.0650 n         1 MOL     -0.354784
    122 C40         3.5690   -3.6290   -0.9560 c3        1 MOL      0.070983
    123 C41         5.0660   -3.3000   -0.5010 c         1 MOL      0.469238
    124 O16         5.3300   -2.5510    0.4270 o         1 MOL     -0.456421
    125 C42         3.4310   -3.1020   -2.3540 c3        1 MOL     -0.123656
    126 O17         3.8020   -1.7570   -2.6320 oh        1 MOL     -0.549112
    127 H57         2.3990   -2.0670   -0.1190 hn        1 MOL      0.434354
    128 H58         3.5320   -4.7230   -0.9240 h1        1 MOL      0.059315
    129 H59         2.4120   -3.3800   -2.6260 h1        1 MOL      0.096691
    130 H60         4.0100   -3.7380   -3.0320 h1        1 MOL      0.096691
    131 H61         3.0580   -1.2010   -2.4110 ho        1 MOL      0.360785
    132 N12         6.0430   -3.9000   -1.2210 n         1 MOL     -0.449937
    133 C43         7.5220   -3.6680   -1.0330 c3        1 MOL      0.118660
    134 C44         7.8460   -2.1490   -1.1470 c         1 MOL      0.421235
    135 O18         8.7340   -1.7000   -0.3690 o         1 MOL     -0.507754
    136 C45         8.3150   -4.6640   -1.9190 c3        1 MOL     -0.269326
    137 H62         5.7760   -4.5820   -1.9250 hn        1 MOL      0.280148
    138 H63         7.7420   -4.0670   -0.0400 h1        1 MOL      0.098303
    139 H64         9.3730   -4.5090   -1.7430 hc        1 MOL      0.091930
    140 H65         8.1420   -5.7020   -1.6220 hc        1 MOL      0.091930
    141 H66         8.0340   -4.5950   -2.9680 hc        1 MOL      0.091930
    142 N13         7.2830   -1.3220   -2.0740 n         1 MOL     -0.357318
    143 C46         7.5950    0.0820   -2.2270 c3        1 MOL      0.079970
    144 C47         7.1200    0.9540   -1.0770 c         1 MOL      0.351321
    145 O19         7.7250    2.0360   -0.8550 o         1 MOL     -0.528449
    146 C48         7.0290    0.4690   -3.6060 c3        1 MOL     -0.404707
    147 H67         6.6980   -1.7280   -2.7890 hn        1 MOL      0.282172
    148 H68         8.6710    0.2120   -2.2670 h1        1 MOL      0.103482
    149 H69         7.4920   -0.1390   -4.3930 hc        1 MOL      0.112970
    150 H70         5.9520    0.3040   -3.6900 hc        1 MOL      0.112970
    151 H71         7.4260    1.4760   -3.7390 hc        1 MOL      0.112970
    152 N14         6.0500    0.5070   -0.4670 n         1 MOL     -0.042408
    153 C49         5.4060    1.2720    0.6810 c3        1 MOL     -0.256744
    154 C50         6.2240    1.0100    1.9720 c         1 MOL      0.512118
    155 O20         6.3930    1.8740    2.8310 o         1 MOL     -0.536531
    156 C51         3.9260    0.8170    0.8010 c3        1 MOL      0.206422
    157 C52         3.0930    1.4070   -0.3990 c3        1 MOL     -0.068379
    158 C53         1.8480    0.5610   -0.6140 c         1 MOL      0.734563
    159 O21         1.9810   -0.4670   -1.3210 o         1 MOL     -0.739177
    160 O22         0.7270    0.9640   -0.2080 o         1 MOL     -0.739177
    161 H72         5.5720   -0.3230   -0.7950 hn        1 MOL      0.122940
    162 H73         5.5970    2.3270    0.5040 h1        1 MOL      0.105462
    163 H74         3.5580    1.3050    1.7080 hc        1 MOL     -0.012300
    164 H75         3.7690   -0.2530    0.8040 hc        1 MOL     -0.012300
    165 H76         3.6200    1.6360   -1.3290 hc        1 MOL      0.025550
    166 H77         2.8040    2.4310   -0.1520 hc        1 MOL      0.025550
    167 N15         6.5650   -0.2610    2.1290 n         1 MOL     -0.123883
    168 C54         7.4400   -0.6670    3.2670 c3        1 MOL     -0.374434
    169 H78         7.4250   -1.7530    3.3660 h1        1 MOL      0.141342
    170 H79         8.4600   -0.3330    3.0790 h1        1 MOL      0.141342
    171 H80         7.0730   -0.2140    4.1880 h1        1 MOL      0.141342
    172 H81         6.3220   -0.9340    1.4080 hn        1 MOL      0.175246
    173 Ca1        -1.5300    0.0040   -1.0420 Ca        1 MOL      1.762847
    174 O23        -0.0930    1.4900   -2.7060 oh        1 MOL     -0.865447
    175 H82         0.6480    0.9910   -3.0440 ho        1 MOL      0.402912
    176 H83        -0.1730    2.2370   -3.2990 ho        1 MOL      0.402912
    177 O24        -0.0840   -1.9610   -1.9880 oh        1 MOL     -0.865447
    178 H84         0.7370   -1.4740   -1.9310 ho        1 MOL      0.402912
    179 H85        -0.0530   -2.3620   -2.8510 ho        1 MOL      0.402912
    180 O25        -2.4240   -0.7640   -3.4310 oh        1 MOL     -0.865447
    181 H86        -2.8630   -0.0540   -3.8960 ho        1 MOL      0.402912
    182 H87        -2.0720   -1.3330   -4.1200 ho        1 MOL      0.402912
@<TRIPOS>BOND
     1    1    2 1   
     2    1    4 1   
     3    1    5 1   
     4    1    6 1   
     5    2    3 2   
     6    2    7 1   
     7    7    8 1   
     8    7   15 1   
     9    8    9 1   
    10    8   11 1   
    11    8   16 1   
    12    9   10 2   
    13    9   19 1   
    14   11   12 1   
    15   11   17 1   
    16   11   18 1   
    17   12   13 1   
    18   12   14 1   
    19   19   20 1   
    20   19   28 1   
    21   20   21 1   
    22   20   23 1   
    23   20   29 1   
    24   21   22 2   
    25   21   41 1   
    26   23   24 1   
    27   23   30 1   
    28   23   31 1   
    29   24   25 1   
    30   24   32 1   
    31   24   33 1   
    32   25   26 1   
    33   25   34 1   
    34   25   35 1   
    35   26   27 1   
    36   26   36 1   
    37   26   37 1   
    38   27   38 1   
    39   27   39 1   
    40   27   40 1   
    41   41   42 1   
    42   41   49 1   
    43   42   43 1   
    44   42   45 1   
    45   42   50 1   
    46   43   44 2   
    47   43   53 1   
    48   45   46 1   
    49   45   51 1   
    50   45   52 1   
    51   46   47 1   
    52   46   48 1   
    53   53   54 1   
    54   53   57 1   
    55   54   55 1   
    56   54   58 1   
    57   54   59 1   
    58   55   56 2   
    59   55   60 1   
    60   60   61 1   
    61   60   68 1   
    62   61   62 1   
    63   61   64 1   
    64   61   69 1   
    65   62   63 2   
    66   62   74 1   
    67   64   65 1   
    68   64   70 1   
    69   64   71 1   
    70   65   66 1   
    71   65   67 2   
    72   66   72 1   
    73   66   73 1   
    74   74   75 1   
    75   74   78 1   
    76   75   76 1   
    77   75   79 1   
    78   75   80 1   
    79   76   77 2   
    80   76   81 1   
    81   81   82 1   
    82   81   93 1   
    83   82   83 1   
    84   82   85 1   
    85   82   94 1   
    86   83   84 2   
    87   83  102 1   
    88   85   86 1   
    89   85   95 1   
    90   85   96 1   
    91   86   87 ar  
    92   86   88 ar  
    93   87   89 ar  
    94   87   97 1   
    95   88   90 ar  
    96   88   98 1   
    97   89   91 ar  
    98   89   99 1   
    99   90   91 ar  
   100   90  100 1   
   101   91   92 1   
   102   92  101 1   
   103  102  103 1   
   104  102  110 1   
   105  103  104 1   
   106  103  106 1   
   107  103  111 1   
   108  104  105 2   
   109  104  121 1   
   110  106  107 1   
   111  106  108 1   
   112  106  112 1   
   113  107  109 1   
   114  107  113 1   
   115  107  114 1   
   116  108  115 1   
   117  108  116 1   
   118  108  117 1   
   119  109  118 1   
   120  109  119 1   
   121  109  120 1   
   122  121  122 1   
   123  121  127 1   
   124  122  123 1   
   125  122  125 1   
   126  122  128 1   
   127  123  124 2   
   128  123  132 1   
   129  125  126 1   
   130  125  129 1   
   131  125  130 1   
   132  126  131 1   
   133  132  133 1   
   134  132  137 1   
   135  133  134 1   
   136  133  136 1   
   137  133  138 1   
   138  134  135 2   
   139  134  142 1   
   140  136  139 1   
   141  136  140 1   
   142  136  141 1   
   143  142  143 1   
   144  142  147 1   
   145  143  144 1   
   146  143  146 1   
   147  143  148 1   
   148  144  145 2   
   149  144  152 1   
   150  146  149 1   
   151  146  150 1   
   152  146  151 1   
   153  152  153 1   
   154  152  161 1   
   155  153  154 1   
   156  153  156 1   
   157  153  162 1   
   158  154  155 2   
   159  154  167 1   
   160  156  157 1   
   161  156  163 1   
   162  156  164 1   
   163  157  158 1   
   164  157  165 1   
   165  157  166 1   
   166  158  159 1   
   167  158  160 1   
   168  167  168 1   
   169  167  172 1   
   170  168  169 1   
   171  168  170 1   
   172  168  171 1   
   173  174  175 1   
   174  174  176 1   
   175  177  178 1   
   176  177  179 1   
   177  180  181 1   
   178  180  182 1   
@<TRIPOS>SUBSTRUCTURE
     1 MOL         1 TEMP              0 ****  ****    0 ROOT
