@<TRIPOS>MOLECULE
MOL
  189   185     1     0     0
SMALL
resp


@<TRIPOS>ATOM
      1 C1          0.0700    2.8160    6.0410 c3        1 MOL     -0.343206
      2 C2         -0.1990    2.4460    4.5380 c         1 MOL      0.825254
      3 O1          0.6870    2.5060    3.7020 o         1 MOL     -0.662127
      4 H1         -0.7070    3.4950    6.3920 hc        1 MOL      0.084061
      5 H2          0.0600    1.9090    6.6460 hc        1 MOL      0.084061
      6 H3          1.0420    3.3010    6.1280 hc        1 MOL      0.084061
      7 N1         -1.4480    2.1400    4.1260 n         1 MOL     -0.698357
      8 C3         -1.8120    1.8110    2.7640 c3        1 MOL      0.241203
      9 C4         -2.2330    3.1000    1.9800 c         1 MOL      0.377337
     10 O2         -3.1870    3.7790    2.4180 o         1 MOL     -0.528268
     11 C5         -3.0120    0.8160    2.9130 c3        1 MOL     -0.272663
     12 C6         -3.7230    0.4030    1.5670 c         1 MOL      0.889898
     13 O3         -3.2180    0.6920    0.4600 o         1 MOL     -0.753956
     14 O4         -4.7300   -0.3770    1.6780 o         1 MOL     -0.753956
     15 H4         -2.1050    2.0240    4.8740 hn        1 MOL      0.340697
     16 H5         -0.9980    1.2740    2.2810 h1        1 MOL      0.051194
     17 H6         -3.7740    1.2990    3.5220 hc        1 MOL      0.055884
     18 H7         -2.6190   -0.1280    3.2900 hc        1 MOL      0.055884
     19 N2         -1.4860    3.5500    0.9480 n         1 MOL     -0.207636
     20 C7         -1.5480    4.8970    0.4260 c3        1 MOL     -0.006487
     21 C8         -2.3900    5.1050   -0.8150 c         1 MOL      0.455084
     22 O5         -2.7980    6.2250   -1.0530 o         1 MOL     -0.557711
     23 C9         -0.1230    5.4310    0.1400 c3        1 MOL     -0.041185
     24 C10         0.9240    5.4040    1.2830 c3        1 MOL     -0.092815
     25 C11         0.3750    6.1790    2.4840 c3        1 MOL     -0.016464
     26 C12         1.3380    6.1310    3.6580 c3        1 MOL      0.060089
     27 N3          0.9560    6.9620    4.8920 n4        1 MOL     -0.473215
     28 H8         -0.7950    2.9320    0.5690 hn        1 MOL      0.254696
     29 H9         -1.8960    5.6220    1.1560 h1        1 MOL      0.058070
     30 H10        -0.2540    6.4570   -0.2030 hc        1 MOL      0.025432
     31 H11         0.2720    4.8710   -0.7080 hc        1 MOL      0.025432
     32 H12         1.8110    5.9120    0.9000 hc        1 MOL      0.042794
     33 H13         1.0860    4.3600    1.5470 hc        1 MOL      0.042794
     34 H14        -0.5430    5.7050    2.8300 hc        1 MOL      0.051792
     35 H15         0.0620    7.1950    2.2350 hc        1 MOL      0.051792
     36 H16         2.3160    6.4320    3.2870 hx        1 MOL      0.074220
     37 H17         1.4520    5.0710    3.8890 hx        1 MOL      0.074220
     38 H18         0.8310    7.9230    4.6200 hn        1 MOL      0.350966
     39 H19         0.2030    6.5490    5.4070 hn        1 MOL      0.350966
     40 H20         1.7270    6.9850    5.5480 hn        1 MOL      0.350966
     41 N4         -2.8380    4.0510   -1.5330 n         1 MOL     -0.325261
     42 C13        -3.7700    4.1480   -2.6410 c3        1 MOL      0.180155
     43 C14        -5.1200    3.5960   -2.2110 c         1 MOL      0.417494
     44 O6         -6.0870    3.9660   -2.9090 o         1 MOL     -0.558140
     45 C15        -3.2490    3.4800   -3.8810 c3        1 MOL     -0.130842
     46 C16        -2.7860    2.0300   -3.7970 c         1 MOL      0.793910
     47 O7         -2.7120    1.3970   -2.6870 o         1 MOL     -0.730630
     48 O8         -2.3770    1.5090   -4.8780 o         1 MOL     -0.730630
     49 H21        -2.4180    3.1500   -1.3550 hn        1 MOL      0.140387
     50 H22        -3.9150    5.1910   -2.9090 h1        1 MOL      0.050367
     51 H23        -2.4090    4.0950   -4.2250 hc        1 MOL      0.020822
     52 H24        -3.9960    3.5370   -4.6710 hc        1 MOL      0.020822
     53 N5         -5.3020    2.8360   -1.1300 n         1 MOL     -0.159776
     54 C17        -6.5260    2.1500   -0.6960 c3        1 MOL     -0.260514
     55 C18        -6.8170    0.8950   -1.5750 c         1 MOL      0.670060
     56 O9         -7.1770    0.9760   -2.7370 o         1 MOL     -0.496402
     57 H25        -4.4940    2.6090   -0.5750 hn        1 MOL      0.199672
     58 H26        -7.3930    2.7860   -0.8880 h1        1 MOL      0.102579
     59 H27        -6.4500    1.8530    0.3410 h1        1 MOL      0.102579
     60 N6         -6.6370   -0.3030   -0.9540 n         1 MOL     -0.514768
     61 C19        -7.1160   -1.5830   -1.4640 c3        1 MOL     -0.042439
     62 C20        -7.2540   -2.7120   -0.3770 c         1 MOL      0.516938
     63 O10        -8.0700   -3.6580   -0.6130 o         1 MOL     -0.551092
     64 C21        -6.2100   -2.0240   -2.6060 c3        1 MOL     -0.125131
     65 C22        -4.7330   -1.7540   -2.3470 c         1 MOL      0.581013
     66 O11        -4.2070   -2.2600   -1.3260 o         1 MOL     -0.620510
     67 O12        -3.9850   -1.0970   -3.1060 o         1 MOL     -0.620510
     68 H28        -6.1400   -0.0990   -0.1000 hn        1 MOL      0.210923
     69 H29        -8.1480   -1.4580   -1.7960 h1        1 MOL      0.103133
     70 H30        -6.4990   -1.5770   -3.5520 hc        1 MOL      0.057826
     71 H31        -6.3090   -3.1120   -2.6800 hc        1 MOL      0.057826
     72 N7         -6.6110   -2.4730    0.7720 n         1 MOL     -0.383536
     73 C23        -6.5600   -3.5100    1.8220 c3        1 MOL      0.008919
     74 C24        -5.2620   -4.2680    1.9800 c         1 MOL      0.463837
     75 O13        -5.3410   -5.3200    2.5800 o         1 MOL     -0.568349
     76 H32        -6.0480   -1.6270    0.7840 hn        1 MOL      0.337579
     77 H33        -7.4490   -4.1270    1.7300 h1        1 MOL      0.062571
     78 H34        -6.6800   -2.9610    2.7530 h1        1 MOL      0.062571
     79 N8         -4.1920   -3.8120    1.4250 n         1 MOL     -0.082975
     80 C25        -2.8750   -4.4700    1.3700 c3        1 MOL     -0.297539
     81 C26        -1.6680   -3.4700    1.4000 c         1 MOL      0.649722
     82 O14        -1.8530   -2.3410    0.9160 o         1 MOL     -0.633901
     83 C27        -2.6320   -5.2930    0.1130 c3        1 MOL      0.508063
     84 C28        -3.1710   -6.8020    0.0530 c3        1 MOL     -0.486520
     85 O15        -3.2050   -4.7080   -1.0080 oh        1 MOL     -0.550427
     86 H35        -4.3340   -2.8660    1.0990 hn        1 MOL      0.157055
     87 H36        -2.7250   -5.0850    2.2560 h1        1 MOL      0.108675
     88 H37        -1.5570   -5.2710   -0.0180 h1        1 MOL     -0.043871
     89 H38        -3.6980   -3.9210   -0.7610 ho        1 MOL      0.310878
     90 H39        -2.7460   -7.3950   -0.7570 hc        1 MOL      0.122489
     91 H40        -2.9580   -7.3000    1.0060 hc        1 MOL      0.122489
     92 H41        -4.2560   -6.8330    0.0130 hc        1 MOL      0.122489
     93 N9         -0.5160   -3.8460    1.9600 n         1 MOL     -0.525730
     94 C29         0.7080   -3.0030    1.9870 c3        1 MOL      0.068249
     95 C30         1.9330   -3.4840    1.1000 c         1 MOL      0.508590
     96 O16         2.5520   -4.4950    1.4700 o         1 MOL     -0.552660
     97 C31         1.0900   -2.8770    3.5330 c3        1 MOL      0.005357
     98 C32        -0.0750   -2.1650    4.3300 c3        1 MOL      0.209053
     99 C33         2.5320   -2.2710    3.7120 c3        1 MOL     -0.136504
    100 C34         0.2790   -1.8680    5.7950 c3        1 MOL     -0.229089
    101 H42        -0.5080   -4.7960    2.2980 hn        1 MOL      0.299730
    102 H43         0.4670   -2.0060    1.5940 h1        1 MOL      0.129011
    103 H44         1.1270   -3.8720    3.9880 hc        1 MOL      0.020567
    104 H45        -0.8970   -2.8730    4.3540 hc        1 MOL     -0.041362
    105 H46        -0.3220   -1.2800    3.7430 hc        1 MOL     -0.041362
    106 H47         2.8760   -2.2010    4.7400 hc        1 MOL      0.017778
    107 H48         3.1570   -2.8730    3.0580 hc        1 MOL      0.017778
    108 H49         2.5350   -1.2860    3.2500 hc        1 MOL      0.017778
    109 H50        -0.6320   -1.4600    6.2250 hc        1 MOL      0.055294
    110 H51         0.4430   -2.8420    6.2680 hc        1 MOL      0.055294
    111 H52         1.0740   -1.1380    5.9270 hc        1 MOL      0.055294
    112 N10         2.2000   -2.8940   -0.0050 n         1 MOL     -0.208062
    113 C35         3.4030   -3.1290   -0.8590 c3        1 MOL     -0.172408
    114 C36         4.7520   -2.8320   -0.2360 c         1 MOL      0.367136
    115 O17         4.8900   -1.9820    0.5860 o         1 MOL     -0.179077
    116 C37         3.2760   -2.2190   -2.1610 c3        1 MOL      0.091450
    117 C38         2.0070   -2.4340   -3.0220 c3        1 MOL     -0.214658
    118 O18         3.2980   -0.8290   -1.8350 oh        1 MOL     -0.587254
    119 H53         1.7090   -2.0360   -0.2050 hn        1 MOL      0.084918
    120 H54         3.4010   -4.1920   -1.1030 h1        1 MOL      0.136162
    121 H55         4.0770   -2.3110   -2.8930 h1        1 MOL      0.101170
    122 H56         2.4260   -0.6750   -1.4700 ho        1 MOL      0.419458
    123 H57         2.0560   -3.4260   -3.4630 hc        1 MOL      0.078577
    124 H58         1.0380   -2.3750   -2.5090 hc        1 MOL      0.078577
    125 H59         1.8900   -1.7000   -3.8210 hc        1 MOL      0.078577
    126 N11         5.8280   -3.2270   -0.9650 n         1 MOL     -0.302950
    127 C39         7.1950   -2.6990   -0.6420 c3        1 MOL     -0.284546
    128 C40         7.3960   -1.1810   -0.5020 c         1 MOL      0.490062
    129 O19         8.0450   -0.6950    0.4230 o         1 MOL     -0.508058
    130 C41         8.2400   -3.2660   -1.5950 c3        1 MOL      0.424549
    131 C42         8.4020   -4.7650   -1.6250 c3        1 MOL     -0.370157
    132 O20         7.9470   -2.8780   -2.9430 oh        1 MOL     -0.652574
    133 H60         5.7540   -3.9840   -1.6200 hn        1 MOL      0.283905
    134 H61         7.4420   -3.0840    0.3480 h1        1 MOL      0.154976
    135 H62         9.2070   -2.8340   -1.3520 h1        1 MOL      0.025588
    136 H63         8.6900   -2.4690   -3.3910 ho        1 MOL      0.394462
    137 H64         9.0610   -5.0340   -2.4600 hc        1 MOL      0.104778
    138 H65         8.9540   -5.0240   -0.7170 hc        1 MOL      0.104778
    139 H66         7.5000   -5.3490   -1.7580 hc        1 MOL      0.104778
    140 N12         6.7250   -0.3590   -1.3520 n         1 MOL     -0.364425
    141 C43         6.9240    1.1320   -1.1900 c3        1 MOL     -0.101191
    142 C44         6.0130    1.8130   -0.1700 c         1 MOL      0.350702
    143 O21         6.2080    3.0020    0.1660 o         1 MOL     -0.529893
    144 C45         7.0130    1.8270   -2.5260 c3        1 MOL     -0.066756
    145 C46         5.6480    1.7180   -3.2900 c3        1 MOL     -0.007103
    146 C47         5.7270    2.4460   -4.6530 c3        1 MOL     -0.096633
    147 C48         4.3390    2.4890   -5.3190 c3        1 MOL      0.120984
    148 N13         4.3380    2.8930   -6.7090 n4        1 MOL     -0.432368
    149 H67         6.2590   -0.8040   -2.1320 hn        1 MOL      0.258433
    150 H68         7.9310    1.2810   -0.7890 h1        1 MOL      0.176357
    151 H69         7.8460    1.4080   -3.0780 hc        1 MOL      0.057551
    152 H70         7.3720    2.8550   -2.4390 hc        1 MOL      0.057551
    153 H71         4.8180    2.0190   -2.6450 hc        1 MOL      0.056714
    154 H72         5.4620    0.6800   -3.5480 hc        1 MOL      0.056714
    155 H73         6.4660    1.8830   -5.2150 hc        1 MOL      0.042299
    156 H74         6.1170    3.4570   -4.5570 hc        1 MOL      0.042299
    157 H75         3.5760    2.9310   -4.6800 hx        1 MOL      0.066671
    158 H76         3.9450    1.4710   -5.2840 hx        1 MOL      0.066671
    159 H77         4.9730    2.4140   -7.3370 hn        1 MOL      0.349344
    160 H78         3.4040    2.7090   -7.0380 hn        1 MOL      0.349344
    161 H79         4.4410    3.8940   -6.7880 hn        1 MOL      0.349344
    162 N14         5.0680    1.0840    0.4330 n         1 MOL      0.001260
    163 C49         4.1620    1.5370    1.4820 c3        1 MOL     -0.075696
    164 C50         4.7630    1.0090    2.7700 c         1 MOL      0.489907
    165 O22         4.6620    1.6920    3.7760 o         1 MOL     -0.569815
    166 C51         2.7840    0.8880    1.3050 c3        1 MOL      0.073535
    167 C52         1.9520    1.4800    0.1200 c3        1 MOL     -0.006432
    168 C53         0.6540    0.6980   -0.2030 c         1 MOL      0.454053
    169 O23         0.6610   -0.5290   -0.4340 o         1 MOL     -0.601373
    170 O24        -0.3880    1.3250   -0.5690 o         1 MOL     -0.601373
    171 H80         4.9380    0.1260    0.1210 hn        1 MOL     -0.038205
    172 H81         4.1840    2.6310    1.4910 h1        1 MOL      0.081291
    173 H82         2.2160    1.0370    2.2300 hc        1 MOL      0.038369
    174 H83         2.9460   -0.1830    1.2090 hc        1 MOL      0.038369
    175 H84         2.5910    1.5870   -0.7550 hc        1 MOL      0.006710
    176 H85         1.6670    2.4580    0.4990 hc        1 MOL      0.006710
    177 N15         5.5120   -0.1310    2.8260 n         1 MOL     -0.118821
    178 C54         6.2700   -0.6310    3.9540 c3        1 MOL     -0.295579
    179 H86         7.2010   -1.0720    3.5970 h1        1 MOL      0.114412
    180 H87         6.4960    0.1900    4.6350 h1        1 MOL      0.114412
    181 H88         5.6860   -1.3880    4.4780 h1        1 MOL      0.114412
    182 H89         5.4820   -0.7310    2.0110 hn        1 MOL      0.118210
    183 Ca1        -1.9810   -0.7530   -1.3580 Ca        1 MOL      1.749852
    184 O25        -0.6620   -0.3230   -3.6480 oh        1 MOL     -0.881879
    185 H90         0.1920   -0.2840   -4.1030 ho        1 MOL      0.397210
    186 H91        -1.2270    0.2620   -4.1580 ho        1 MOL      0.397210
    187 O26        -1.2960   -3.1310   -2.2830 oh        1 MOL     -0.881879
    188 H92        -1.8280   -3.8740   -2.0050 ho        1 MOL      0.397210
    189 H93        -0.8880   -3.4210   -3.1040 ho        1 MOL      0.397210
@<TRIPOS>BOND
     1    1    2 1   
     2    1    4 1   
     3    1    5 1   
     4    1    6 1   
     5    2    3 2   
     6    2    7 1   
     7    7    8 1   
     8    7   15 1   
     9    8    9 1   
    10    8   11 1   
    11    8   16 1   
    12    9   10 2   
    13    9   19 1   
    14   11   12 1   
    15   11   17 1   
    16   11   18 1   
    17   12   13 1   
    18   12   14 1   
    19   19   20 1   
    20   19   28 1   
    21   20   21 1   
    22   20   23 1   
    23   20   29 1   
    24   21   22 2   
    25   21   41 1   
    26   23   24 1   
    27   23   30 1   
    28   23   31 1   
    29   24   25 1   
    30   24   32 1   
    31   24   33 1   
    32   25   26 1   
    33   25   34 1   
    34   25   35 1   
    35   26   27 1   
    36   26   36 1   
    37   26   37 1   
    38   27   38 1   
    39   27   39 1   
    40   27   40 1   
    41   41   42 1   
    42   41   49 1   
    43   42   43 1   
    44   42   45 1   
    45   42   50 1   
    46   43   44 2   
    47   43   53 1   
    48   45   46 1   
    49   45   51 1   
    50   45   52 1   
    51   46   47 1   
    52   46   48 1   
    53   53   54 1   
    54   53   57 1   
    55   54   55 1   
    56   54   58 1   
    57   54   59 1   
    58   55   56 2   
    59   55   60 1   
    60   60   61 1   
    61   60   68 1   
    62   61   62 1   
    63   61   64 1   
    64   61   69 1   
    65   62   63 2   
    66   62   72 1   
    67   64   65 1   
    68   64   70 1   
    69   64   71 1   
    70   65   66 1   
    71   65   67 1   
    72   72   73 1   
    73   72   76 1   
    74   73   74 1   
    75   73   77 1   
    76   73   78 1   
    77   74   75 2   
    78   74   79 1   
    79   79   80 1   
    80   79   86 1   
    81   80   81 1   
    82   80   83 1   
    83   80   87 1   
    84   81   82 2   
    85   81   93 1   
    86   83   84 1   
    87   83   85 1   
    88   83   88 1   
    89   84   90 1   
    90   84   91 1   
    91   84   92 1   
    92   85   89 1   
    93   93   94 1   
    94   93  101 1   
    95   94   95 1   
    96   94   97 1   
    97   94  102 1   
    98   95   96 2   
    99   95  112 1   
   100   97   98 1   
   101   97   99 1   
   102   97  103 1   
   103   98  100 1   
   104   98  104 1   
   105   98  105 1   
   106   99  106 1   
   107   99  107 1   
   108   99  108 1   
   109  100  109 1   
   110  100  110 1   
   111  100  111 1   
   112  112  113 1   
   113  112  119 1   
   114  113  114 1   
   115  113  116 1   
   116  113  120 1   
   117  114  115 2   
   118  114  126 1   
   119  116  117 1   
   120  116  118 1   
   121  116  121 1   
   122  117  123 1   
   123  117  124 1   
   124  117  125 1   
   125  118  122 1   
   126  126  127 1   
   127  126  133 1   
   128  127  128 1   
   129  127  130 1   
   130  127  134 1   
   131  128  129 2   
   132  128  140 1   
   133  130  131 1   
   134  130  132 1   
   135  130  135 1   
   136  131  137 1   
   137  131  138 1   
   138  131  139 1   
   139  132  136 1   
   140  140  141 1   
   141  140  149 1   
   142  141  142 1   
   143  141  144 1   
   144  141  150 1   
   145  142  143 2   
   146  142  162 1   
   147  144  145 1   
   148  144  151 1   
   149  144  152 1   
   150  145  146 1   
   151  145  153 1   
   152  145  154 1   
   153  146  147 1   
   154  146  155 1   
   155  146  156 1   
   156  147  148 1   
   157  147  157 1   
   158  147  158 1   
   159  148  159 1   
   160  148  160 1   
   161  148  161 1   
   162  162  163 1   
   163  162  171 1   
   164  163  164 1   
   165  163  166 1   
   166  163  172 1   
   167  164  165 2   
   168  164  177 1   
   169  166  167 1   
   170  166  173 1   
   171  166  174 1   
   172  167  168 1   
   173  167  175 1   
   174  167  176 1   
   175  168  169 1   
   176  168  170 1   
   177  177  178 1   
   178  177  182 1   
   179  178  179 1   
   180  178  180 1   
   181  178  181 1   
   182  184  185 1   
   183  184  186 1   
   184  187  188 1   
   185  187  189 1   
@<TRIPOS>SUBSTRUCTURE
     1 MOL         1 TEMP              0 ****  ****    0 ROOT
