@<TRIPOS>MOLECULE
MOL
  179   176     1     0     0
SMALL
resp


@<TRIPOS>ATOM
      1 C1          2.5560    2.3120    5.4130 c3        1 MOL     -0.236517
      2 C2          1.8750    2.1620    4.0270 c         1 MOL      0.770004
      3 O1          2.5330    1.9730    3.0040 o         1 MOL     -0.681383
      4 H1          2.4470    3.3390    5.7620 hc        1 MOL      0.067442
      5 H2          2.0840    1.6350    6.1250 hc        1 MOL      0.067442
      6 H3          3.6140    2.0690    5.3270 hc        1 MOL      0.067442
      7 N1          0.5050    2.1800    3.9290 n         1 MOL     -0.665193
      8 C3         -0.2650    2.2200    2.7270 c3        1 MOL      0.072876
      9 C4         -0.1910    3.6920    2.2690 c         1 MOL      0.496311
     10 O2         -0.8560    4.5960    2.8090 o         1 MOL     -0.513424
     11 C5         -1.6450    1.6950    3.0210 c3        1 MOL     -0.010855
     12 C6         -2.5240    1.3750    1.8230 c         1 MOL      0.688298
     13 O3         -3.6800    0.9200    2.0710 o         1 MOL     -0.744689
     14 O4         -2.1420    1.7320    0.6980 o         1 MOL     -0.744689
     15 H4         -0.0190    2.1190    4.7940 hn        1 MOL      0.331668
     16 H5          0.0820    1.4950    1.9990 h1        1 MOL      0.078210
     17 H6         -2.2300    2.4260    3.5740 hc        1 MOL      0.012026
     18 H7         -1.4440    0.7740    3.5750 hc        1 MOL      0.012026
     19 N2          0.7100    3.9320    1.3130 n         1 MOL     -0.237097
     20 C7          0.9960    5.2660    0.7050 c3        1 MOL     -0.080902
     21 C8         -0.2420    5.9000    0.1480 c         1 MOL      0.405067
     22 O5         -0.4880    7.0650    0.4190 o         1 MOL     -0.531235
     23 C9          2.0240    5.0750   -0.4030 c3        1 MOL     -0.044323
     24 C10         3.3460    4.3990   -0.0420 c3        1 MOL     -0.080432
     25 C11         4.4120    4.4820   -1.0500 c3        1 MOL      0.101405
     26 C12         4.8830    5.9110   -1.2550 c3        1 MOL     -0.008031
     27 N3          6.1820    6.1270   -1.9170 n4        1 MOL     -0.301771
     28 H8          1.1430    3.1360    0.8750 hn        1 MOL      0.276444
     29 H9          1.4770    5.8710    1.4660 h1        1 MOL      0.092205
     30 H10         2.1500    5.9970   -0.9500 hc        1 MOL      0.010881
     31 H11         1.5150    4.4550   -1.1450 hc        1 MOL      0.010881
     32 H12         3.0900    3.3560    0.1510 hc        1 MOL      0.053989
     33 H13         3.6430    4.9030    0.8770 hc        1 MOL      0.053989
     34 H14         4.1700    3.9150   -1.9470 hc        1 MOL      0.014794
     35 H15         5.2760    3.9690   -0.6290 hc        1 MOL      0.014794
     36 H16         4.8620    6.3680   -0.2580 hx        1 MOL      0.082596
     37 H17         4.1250    6.4060   -1.8640 hx        1 MOL      0.082596
     38 H18         6.9490    6.3350   -1.2860 hn        1 MOL      0.315102
     39 H19         6.5000    5.4020   -2.5440 hn        1 MOL      0.315102
     40 H20         6.1970    7.0620   -2.2820 hn        1 MOL      0.315102
     41 N4         -0.9550    5.1110   -0.6410 n         1 MOL     -0.152330
     42 C13        -2.1880    5.4370   -1.3780 c3        1 MOL     -0.039495
     43 C14        -3.4560    5.0090   -0.6450 c         1 MOL      0.517441
     44 O6         -4.5350    5.2990   -1.0670 o         1 MOL     -0.571048
     45 C15        -2.1180    5.0180   -2.8770 c3        1 MOL     -0.246941
     46 C16        -2.1170    3.4900   -3.1190 c         1 MOL      0.768688
     47 O7         -2.1980    2.7320   -2.1160 o         1 MOL     -0.715532
     48 O8         -1.9250    3.1220   -4.3150 o         1 MOL     -0.715532
     49 H21        -0.5750    4.1750   -0.7140 hn        1 MOL      0.183765
     50 H22        -2.2140    6.5270   -1.2940 h1        1 MOL      0.095415
     51 H23        -1.2180    5.4910   -3.2520 hc        1 MOL      0.069528
     52 H24        -3.0400    5.2990   -3.3920 hc        1 MOL      0.069528
     53 N5         -3.4220    4.2460    0.4040 n         1 MOL     -0.093142
     54 C17        -4.5730    3.9860    1.3300 c3        1 MOL     -0.451599
     55 C18        -5.6480    3.0670    0.7020 c         1 MOL      0.733005
     56 O9         -6.7970    3.0900    1.0980 o         1 MOL     -0.633078
     57 H25        -2.6530    3.5940    0.5070 hn        1 MOL      0.039098
     58 H26        -4.9400    4.9920    1.5300 h1        1 MOL      0.185867
     59 H27        -4.1800    3.4480    2.1900 h1        1 MOL      0.185867
     60 N6         -5.3130    2.2580   -0.2990 n         1 MOL     -0.350704
     61 C19        -6.2430    1.4920   -1.0740 c3        1 MOL     -0.077750
     62 C20        -6.6280    0.1750   -0.2650 c         1 MOL      0.411323
     63 O10        -7.2660   -0.6680   -0.8830 o         1 MOL     -0.528766
     64 C21        -5.7200    1.3640   -2.5460 c3        1 MOL     -0.186616
     65 C22        -4.7420    0.2040   -2.7380 c         1 MOL      0.591461
     66 N7         -5.0740   -0.7640   -3.5750 n         1 MOL     -0.651430
     67 O11        -3.7890    0.1270   -1.9690 o         1 MOL     -0.651094
     68 H28        -4.3460    2.4310   -0.5590 hn        1 MOL      0.301158
     69 H29        -7.1990    2.0210   -1.1240 h1        1 MOL      0.133516
     70 H30        -5.2740    2.2740   -2.9570 hc        1 MOL      0.095552
     71 H31        -6.5150    1.1630   -3.2570 hc        1 MOL      0.095552
     72 H32        -5.7260   -0.5130   -4.3110 hn        1 MOL      0.330284
     73 H33        -4.6890   -1.7010   -3.5710 hn        1 MOL      0.330284
     74 N8         -6.2460    0.0260    0.9710 n         1 MOL     -0.108130
     75 C23        -6.5980   -1.1250    1.7670 c3        1 MOL     -0.484715
     76 C24        -5.5690   -2.1960    1.6550 c         1 MOL      0.728964
     77 O12        -5.8920   -3.2520    2.1950 o         1 MOL     -0.535352
     78 H34        -5.6370    0.7080    1.3860 hn        1 MOL      0.296529
     79 H35        -7.5630   -1.4740    1.4210 h1        1 MOL      0.181831
     80 H36        -6.6480   -0.6980    2.7660 h1        1 MOL      0.181831
     81 N9         -4.3600   -1.9940    1.0270 n         1 MOL     -0.334386
     82 C25        -3.3530   -3.0600    0.9580 c3        1 MOL     -0.119171
     83 C26        -1.9410   -2.4840    0.9700 c         1 MOL      0.785762
     84 O13        -1.7050   -1.6110    0.2140 o         1 MOL     -0.689627
     85 C27        -3.5790   -3.9010   -0.3820 c3        1 MOL      0.175243
     86 C28        -4.7980   -4.7340   -0.4790 ca        1 MOL     -0.039899
     87 C29        -5.7590   -4.5180   -1.4410 ca        1 MOL     -0.217000
     88 C30        -5.0010   -5.7540    0.4100 ca        1 MOL     -0.217000
     89 C31        -6.8420   -5.4200   -1.5570 ca        1 MOL     -0.107323
     90 C32        -6.0660   -6.6680    0.2450 ca        1 MOL     -0.107323
     91 C33        -6.9780   -6.5500   -0.7520 ca        1 MOL      0.217668
     92 O14        -7.9770   -7.4510   -0.8850 oh        1 MOL     -0.455824
     93 H37        -4.1210   -1.0850    0.6610 hn        1 MOL      0.222323
     94 H38        -3.4000   -3.6440    1.8780 h1        1 MOL      0.052556
     95 H39        -2.7090   -4.4970   -0.6460 hc        1 MOL     -0.002586
     96 H40        -3.5860   -3.2750   -1.2710 hc        1 MOL     -0.002586
     97 H41        -5.5960   -3.6410   -2.0510 ha        1 MOL      0.132085
     98 H42        -4.3340   -5.8780    1.2490 ha        1 MOL      0.132085
     99 H43        -7.5270   -5.2700   -2.3760 ha        1 MOL      0.101501
    100 H44        -6.2030   -7.4920    0.9270 ha        1 MOL      0.101501
    101 H45        -7.7120   -8.2490   -0.4190 ho        1 MOL      0.347715
    102 N10        -0.9670   -3.0530    1.7900 n         1 MOL     -0.701462
    103 C34         0.4190   -2.7410    1.8080 c3        1 MOL     -0.003382
    104 C35         1.1100   -3.7820    0.8920 c         1 MOL      0.559761
    105 O15         0.9190   -4.9720    1.0360 o         1 MOL     -0.574389
    106 C36         1.0960   -2.7140    3.2210 c3        1 MOL      0.117908
    107 C37         0.1790   -2.0110    4.2400 c3        1 MOL      0.262052
    108 C38         2.3190   -1.8530    3.1140 c3        1 MOL     -0.496570
    109 C39         0.6630   -2.0170    5.6720 c3        1 MOL     -0.257302
    110 H46        -1.2340   -3.8680    2.3230 hn        1 MOL      0.347453
    111 H47         0.5010   -1.7720    1.3110 h1        1 MOL      0.117760
    112 H48         1.3580   -3.7150    3.5540 hc        1 MOL      0.020983
    113 H49        -0.8290   -2.4150    4.2800 hc        1 MOL     -0.039281
    114 H50        -0.0810   -1.0100    3.8900 hc        1 MOL     -0.039281
    115 H51         2.0560   -0.7930    3.0880 hc        1 MOL      0.108503
    116 H52         3.0160   -2.0420    3.9300 hc        1 MOL      0.108503
    117 H53         2.8330   -2.0720    2.1820 hc        1 MOL      0.108503
    118 H54         1.7460   -1.9370    5.7940 hc        1 MOL      0.053435
    119 H55         0.1540   -1.2530    6.2460 hc        1 MOL      0.053435
    120 H56         0.3900   -3.0130    6.0360 hc        1 MOL      0.053435
    121 N11         1.9880   -3.2530    0.1140 n         1 MOL     -0.278370
    122 C40         2.8890   -4.0170   -0.8160 c3        1 MOL     -0.004518
    123 C41         4.3540   -3.9120   -0.4340 c         1 MOL      0.438664
    124 O16         4.7470   -2.9660    0.2200 o         1 MOL     -0.383169
    125 C42         2.6660   -3.5860   -2.2550 c3        1 MOL     -0.048497
    126 O17         2.8960   -2.2160   -2.4760 oh        1 MOL     -0.567264
    127 H57         2.1110   -2.2560    0.2420 hn        1 MOL      0.313891
    128 H58         2.6400   -5.0770   -0.7560 h1        1 MOL      0.054859
    129 H59         1.6100   -3.7680   -2.4110 h1        1 MOL      0.090189
    130 H60         3.2220   -4.2740   -2.9070 h1        1 MOL      0.090189
    131 H61         2.2190   -1.6380   -2.1190 ho        1 MOL      0.390895
    132 N12         5.2250   -4.8360   -0.8550 n         1 MOL     -0.402997
    133 C43         6.6330   -4.7760   -0.4500 c3        1 MOL      0.003141
    134 C44         7.3760   -3.5080   -0.9890 c         1 MOL      0.668332
    135 O18         8.2060   -2.9440   -0.2910 o         1 MOL     -0.550547
    136 C45         7.4230   -6.0440   -0.8880 c3        1 MOL     -0.312157
    137 H62         4.9670   -5.6250   -1.4310 hn        1 MOL      0.297536
    138 H63         6.6470   -4.5960    0.6310 h1        1 MOL      0.102787
    139 H64         7.6440   -5.8730   -1.9480 hc        1 MOL      0.100983
    140 H65         8.3780   -6.0630   -0.3670 hc        1 MOL      0.100983
    141 H66         6.8140   -6.9440   -0.8230 hc        1 MOL      0.100983
    142 N13         6.9560   -2.9710   -2.1450 n         1 MOL     -0.587041
    143 C46         7.4500   -1.6220   -2.5130 c3        1 MOL      0.241805
    144 C47         7.0150   -0.4170   -1.6460 c         1 MOL      0.195946
    145 O19         7.7720    0.5280   -1.4700 o         1 MOL     -0.511306
    146 C48         6.9060   -1.3170   -3.9360 c3        1 MOL     -0.387266
    147 H67         6.1200   -3.2650   -2.6260 hn        1 MOL      0.315281
    148 H68         8.5310   -1.7230   -2.6240 h1        1 MOL      0.093167
    149 H69         7.2710   -0.3800   -4.3610 hc        1 MOL      0.107009
    150 H70         7.3710   -2.0920   -4.5460 hc        1 MOL      0.107009
    151 H71         5.8250   -1.3910   -4.0350 hc        1 MOL      0.107009
    152 N14         5.8790   -0.3750   -0.9460 n         1 MOL      0.130141
    153 C49         5.4450    0.5680    0.0470 c3        1 MOL     -0.167492
    154 C50         6.2270    0.3510    1.3330 c         1 MOL      0.466352
    155 O20         6.5790    1.3290    2.0030 o         1 MOL     -0.554850
    156 C51         3.9340    0.4170    0.1560 c3        1 MOL     -0.251291
    157 C52         3.2080    0.7720   -1.1970 c3        1 MOL      0.038824
    158 C53         1.7500    0.6160   -0.9160 c         1 MOL      0.718473
    159 O21         1.2350   -0.5260   -1.0670 o         1 MOL     -0.782183
    160 O22         0.9750    1.5450   -0.5570 o         1 MOL     -0.782183
    161 H72         5.1820   -1.0870   -1.0930 hn        1 MOL      0.108635
    162 H73         5.7700    1.5510   -0.2970 h1        1 MOL      0.108847
    163 H74         3.4600    0.9830    0.9590 hc        1 MOL      0.138374
    164 H75         3.6430   -0.6040    0.3840 hc        1 MOL      0.138374
    165 H76         3.6030    0.1380   -1.9850 hc        1 MOL     -0.029060
    166 H77         3.4930    1.7800   -1.5180 hc        1 MOL     -0.029060
    167 N15         6.6760   -0.8560    1.6780 n         1 MOL     -0.042058
    168 C54         7.5750   -1.2820    2.7960 c3        1 MOL     -0.372213
    169 H78         7.5000   -0.5670    3.6150 h1        1 MOL      0.143604
    170 H79         7.2740   -2.2690    3.1470 h1        1 MOL      0.143604
    171 H80         8.6040   -1.3210    2.4410 h1        1 MOL      0.143604
    172 H81         6.3140   -1.5910    1.0960 hn        1 MOL      0.059473
    173 Ca1        -1.3280    0.3410   -1.3790 Ca        1 MOL      1.798093
    174 O23        -1.4890   -1.6090   -3.2760 oh        1 MOL     -0.829285
    175 H82        -1.5240   -2.5680   -3.2520 ho        1 MOL      0.401968
    176 H83        -1.8020   -1.3810   -4.1480 ho        1 MOL      0.401968
    177 O24        -0.1810    0.9120   -3.7770 oh        1 MOL     -0.829285
    178 H84        -0.5590    1.4830   -4.4430 ho        1 MOL      0.401968
    179 H85         0.6320    0.5920   -4.1700 ho        1 MOL      0.401968
@<TRIPOS>BOND
     1    1    2 1   
     2    1    4 1   
     3    1    5 1   
     4    1    6 1   
     5    2    3 2   
     6    2    7 1   
     7    7    8 1   
     8    7   15 1   
     9    8    9 1   
    10    8   11 1   
    11    8   16 1   
    12    9   10 2   
    13    9   19 1   
    14   11   12 1   
    15   11   17 1   
    16   11   18 1   
    17   12   13 1   
    18   12   14 1   
    19   19   20 1   
    20   19   28 1   
    21   20   21 1   
    22   20   23 1   
    23   20   29 1   
    24   21   22 2   
    25   21   41 1   
    26   23   24 1   
    27   23   30 1   
    28   23   31 1   
    29   24   25 1   
    30   24   32 1   
    31   24   33 1   
    32   25   26 1   
    33   25   34 1   
    34   25   35 1   
    35   26   27 1   
    36   26   36 1   
    37   26   37 1   
    38   27   38 1   
    39   27   39 1   
    40   27   40 1   
    41   41   42 1   
    42   41   49 1   
    43   42   43 1   
    44   42   45 1   
    45   42   50 1   
    46   43   44 2   
    47   43   53 1   
    48   45   46 1   
    49   45   51 1   
    50   45   52 1   
    51   46   47 1   
    52   46   48 1   
    53   53   54 1   
    54   53   57 1   
    55   54   55 1   
    56   54   58 1   
    57   54   59 1   
    58   55   56 2   
    59   55   60 1   
    60   60   61 1   
    61   60   68 1   
    62   61   62 1   
    63   61   64 1   
    64   61   69 1   
    65   62   63 2   
    66   62   74 1   
    67   64   65 1   
    68   64   70 1   
    69   64   71 1   
    70   65   66 1   
    71   65   67 2   
    72   66   72 1   
    73   66   73 1   
    74   74   75 1   
    75   74   78 1   
    76   75   76 1   
    77   75   79 1   
    78   75   80 1   
    79   76   77 2   
    80   76   81 1   
    81   81   82 1   
    82   81   93 1   
    83   82   83 1   
    84   82   85 1   
    85   82   94 1   
    86   83   84 2   
    87   83  102 1   
    88   85   86 1   
    89   85   95 1   
    90   85   96 1   
    91   86   87 ar  
    92   86   88 ar  
    93   87   89 ar  
    94   87   97 1   
    95   88   90 ar  
    96   88   98 1   
    97   89   91 ar  
    98   89   99 1   
    99   90   91 ar  
   100   90  100 1   
   101   91   92 1   
   102   92  101 1   
   103  102  103 1   
   104  102  110 1   
   105  103  104 1   
   106  103  106 1   
   107  103  111 1   
   108  104  105 2   
   109  104  121 1   
   110  106  107 1   
   111  106  108 1   
   112  106  112 1   
   113  107  109 1   
   114  107  113 1   
   115  107  114 1   
   116  108  115 1   
   117  108  116 1   
   118  108  117 1   
   119  109  118 1   
   120  109  119 1   
   121  109  120 1   
   122  121  122 1   
   123  121  127 1   
   124  122  123 1   
   125  122  125 1   
   126  122  128 1   
   127  123  124 2   
   128  123  132 1   
   129  125  126 1   
   130  125  129 1   
   131  125  130 1   
   132  126  131 1   
   133  132  133 1   
   134  132  137 1   
   135  133  134 1   
   136  133  136 1   
   137  133  138 1   
   138  134  135 2   
   139  134  142 1   
   140  136  139 1   
   141  136  140 1   
   142  136  141 1   
   143  142  143 1   
   144  142  147 1   
   145  143  144 1   
   146  143  146 1   
   147  143  148 1   
   148  144  145 2   
   149  144  152 1   
   150  146  149 1   
   151  146  150 1   
   152  146  151 1   
   153  152  153 1   
   154  152  161 1   
   155  153  154 1   
   156  153  156 1   
   157  153  162 1   
   158  154  155 2   
   159  154  167 1   
   160  156  157 1   
   161  156  163 1   
   162  156  164 1   
   163  157  158 1   
   164  157  165 1   
   165  157  166 1   
   166  158  159 1   
   167  158  160 1   
   168  167  168 1   
   169  167  172 1   
   170  168  169 1   
   171  168  170 1   
   172  168  171 1   
   173  174  175 1   
   174  174  176 1   
   175  177  178 1   
   176  177  179 1   
@<TRIPOS>SUBSTRUCTURE
     1 MOL         1 TEMP              0 ****  ****    0 ROOT
