@<TRIPOS>MOLECULE
MOL
  179   176     1     0     0
SMALL
resp


@<TRIPOS>ATOM
      1 C1          0.2240    4.5790    6.0970 c3        1 MOL     -0.343562
      2 C2          0.3200    3.8610    4.7620 c         1 MOL      0.749761
      3 O1          1.3970    3.8040    4.1940 o         1 MOL     -0.584146
      4 H1          1.1870    4.5260    6.6070 hc        1 MOL      0.083972
      5 H2         -0.0420    5.6230    5.9300 hc        1 MOL      0.083972
      6 H3         -0.5390    4.1030    6.7130 hc        1 MOL      0.083972
      7 N1         -0.7860    3.2960    4.2700 n         1 MOL     -0.622123
      8 C3         -0.8590    2.7200    2.8890 c3        1 MOL      0.091918
      9 C4         -1.0290    3.8490    1.9150 c         1 MOL      0.700341
     10 O2         -1.6400    4.8770    2.2880 o         1 MOL     -0.574803
     11 C5         -2.1010    1.7860    2.8170 c3        1 MOL     -0.192597
     12 C6         -2.1380    1.1980    1.4110 c         1 MOL      0.980671
     13 O3         -3.1550    0.8320    0.8470 o         1 MOL     -0.830404
     14 O4         -1.0320    1.0030    0.8520 o         1 MOL     -0.830404
     15 H4         -1.6770    3.3530    4.7420 hn        1 MOL      0.327253
     16 H5          0.0100    2.1190    2.6410 h1        1 MOL      0.015370
     17 H6         -2.9640    2.4150    3.0490 hc        1 MOL      0.042054
     18 H7         -2.0670    0.8980    3.4640 hc        1 MOL      0.042054
     19 N2         -0.3500    3.7650    0.7530 n         1 MOL     -0.554372
     20 C7         -0.1090    4.8340   -0.2230 c3        1 MOL     -0.061443
     21 C8         -1.3720    5.0620   -1.0130 c         1 MOL      0.470280
     22 O5         -1.5380    6.1690   -1.4370 o         1 MOL     -0.531135
     23 C9          1.2240    4.5480   -0.8900 c3        1 MOL      0.218481
     24 C10         1.8780    5.8650   -1.2950 c3        1 MOL     -0.122462
     25 C11         3.0850    5.5810   -2.1980 c3        1 MOL      0.165898
     26 C12         3.7740    6.8950   -2.5770 c3        1 MOL     -0.006243
     27 N3          4.8810    6.7890   -3.5860 n4        1 MOL     -0.358826
     28 H8          0.0150    2.8490    0.5090 hn        1 MOL      0.338143
     29 H9          0.0460    5.7180    0.3860 h1        1 MOL      0.120694
     30 H10         1.1030    3.8790   -1.7510 hc        1 MOL     -0.016992
     31 H11         1.8990    4.0310   -0.2100 hc        1 MOL     -0.016992
     32 H12         2.1860    6.3360   -0.3620 hc        1 MOL      0.027930
     33 H13         1.1160    6.5320   -1.6970 hc        1 MOL      0.027930
     34 H14         2.6980    5.1270   -3.1090 hc        1 MOL     -0.015872
     35 H15         3.8400    4.9680   -1.7110 hc        1 MOL     -0.015872
     36 H16         4.0940    7.3470   -1.6430 hx        1 MOL      0.079810
     37 H17         2.9590    7.4290   -3.0800 hx        1 MOL      0.079810
     38 H18         4.5310    6.3320   -4.4110 hn        1 MOL      0.328353
     39 H19         5.1110    7.6710   -4.0220 hn        1 MOL      0.328353
     40 H20         5.6880    6.3140   -3.2160 hn        1 MOL      0.328353
     41 N4         -2.2680    4.0510   -1.1040 n         1 MOL     -0.254295
     42 C13        -3.5690    4.2970   -1.7670 c3        1 MOL     -0.036863
     43 C14        -4.7960    3.9050   -0.8230 c         1 MOL      0.498691
     44 O6         -5.8940    4.0630   -1.2490 o         1 MOL     -0.518453
     45 C15        -3.6260    3.7080   -3.2300 c3        1 MOL     -0.187694
     46 C16        -3.6150    2.1630   -3.2990 c         1 MOL      0.750327
     47 O7         -3.7390    1.6930   -4.4410 o         1 MOL     -0.690455
     48 O8         -3.4040    1.4430   -2.2710 o         1 MOL     -0.690455
     49 H21        -1.9880    3.1410   -0.7770 hn        1 MOL      0.194833
     50 H22        -3.6300    5.3840   -1.8650 h1        1 MOL      0.109112
     51 H23        -2.7780    4.1810   -3.7370 hc        1 MOL      0.070168
     52 H24        -4.4710    4.0520   -3.8290 hc        1 MOL      0.070168
     53 N5         -4.5070    3.3320    0.3820 n         1 MOL     -0.289248
     54 C17        -5.5290    2.9090    1.2210 c3        1 MOL     -0.056984
     55 C18        -6.3520    1.7900    0.6820 c         1 MOL      0.461186
     56 O9         -7.4100    1.4960    1.2060 o         1 MOL     -0.581613
     57 H25        -3.5740    3.0150    0.5980 hn        1 MOL      0.083967
     58 H26        -6.2600    3.6770    1.4870 h1        1 MOL      0.083581
     59 H27        -5.1340    2.6650    2.2140 h1        1 MOL      0.083581
     60 N6         -5.8900    1.0400   -0.3420 n         1 MOL     -0.084158
     61 C19        -6.7050   -0.0600   -0.8340 c3        1 MOL     -0.087766
     62 C20        -6.9880   -1.2830    0.0950 c         1 MOL      0.490962
     63 O10        -7.8320   -2.1320   -0.2710 o         1 MOL     -0.559897
     64 C21        -6.0790   -0.6270   -2.1270 c3        1 MOL     -0.205098
     65 C22        -5.0120   -1.5960   -1.8610 c         1 MOL      0.591739
     66 N7         -4.8310   -2.5530   -2.7050 n         1 MOL     -0.702511
     67 O11        -4.2750   -1.5370   -0.9230 o         1 MOL     -0.578574
     68 H28        -4.9540    1.1270   -0.7040 hn        1 MOL      0.152050
     69 H29        -7.6570    0.4180   -1.0550 h1        1 MOL      0.120469
     70 H30        -5.6160    0.0560   -2.8390 hc        1 MOL      0.079196
     71 H31        -6.7880   -1.2760   -2.6460 hc        1 MOL      0.079196
     72 H32        -5.3350   -2.5630   -3.5810 hn        1 MOL      0.341864
     73 H33        -3.8960   -2.9470   -2.7130 hn        1 MOL      0.341864
     74 N8         -6.3890   -1.3760    1.2300 n         1 MOL     -0.247464
     75 C23        -6.5550   -2.5720    2.0810 c3        1 MOL      0.001096
     76 C24        -5.3490   -3.4780    2.3520 c         1 MOL      0.544747
     77 O12        -5.3010   -4.1910    3.3780 o         1 MOL     -0.562842
     78 H34        -5.7550   -0.6560    1.5330 hn        1 MOL      0.237475
     79 H35        -7.2950   -3.2470    1.6650 h1        1 MOL      0.066222
     80 H36        -6.9470   -2.3600    3.0750 h1        1 MOL      0.066222
     81 N9         -4.2870   -3.4270    1.5200 n         1 MOL     -0.510428
     82 C25        -2.8980   -3.8950    1.8960 c3        1 MOL      0.153760
     83 C26        -1.7380   -2.9350    1.5450 c         1 MOL      0.590047
     84 O13        -1.9090   -1.9430    0.7920 o         1 MOL     -0.590710
     85 C27        -2.6050   -5.3090    1.3090 c3        1 MOL     -0.254141
     86 C28        -2.0590   -5.4830   -0.0910 ca        1 MOL      0.037021
     87 C29        -0.6930   -5.3940   -0.3350 ca        1 MOL     -0.076559
     88 C30        -2.9300   -5.9680   -1.1460 ca        1 MOL     -0.076559
     89 C31        -0.2000   -5.7930   -1.5930 ca        1 MOL     -0.362408
     90 C32        -2.3970   -6.3310   -2.4480 ca        1 MOL     -0.362408
     91 C33        -1.0150   -6.2790   -2.6170 ca        1 MOL      0.393461
     92 O14        -0.5470   -6.5470   -3.8100 oh        1 MOL     -0.476366
     93 H37        -4.3740   -3.1240    0.5530 hn        1 MOL      0.319496
     94 H38        -2.9080   -4.0880    2.9640 h1        1 MOL      0.086501
     95 H39        -3.5440   -5.8400    1.3790 hc        1 MOL      0.097751
     96 H40        -1.9230   -5.7130    2.0510 hc        1 MOL      0.097751
     97 H41        -0.0610   -5.2920    0.5430 ha        1 MOL      0.132227
     98 H42        -4.0090   -6.0170   -1.0430 ha        1 MOL      0.132227
     99 H43         0.8520   -5.6950   -1.8230 ha        1 MOL      0.195177
    100 H44        -3.0210   -6.6070   -3.2760 ha        1 MOL      0.195177
    101 H45         0.4160   -6.5250   -3.8350 ho        1 MOL      0.358112
    102 N10        -0.5700   -3.1790    2.0970 n         1 MOL     -0.683535
    103 C34         0.7070   -2.4850    1.8650 c3        1 MOL      0.012710
    104 C35         1.8630   -3.4190    1.4890 c         1 MOL      0.452575
    105 O15         2.0030   -4.4830    2.0030 o         1 MOL     -0.539882
    106 C36         0.9460   -1.5460    3.1410 c3        1 MOL      0.345903
    107 C37         1.7640   -0.2650    2.6820 c3        1 MOL      0.132756
    108 C38         1.5710   -2.1870    4.3270 c3        1 MOL     -0.314916
    109 C39         2.0580    0.7190    3.7740 c3        1 MOL     -0.029598
    110 H46        -0.6090   -4.0290    2.6370 hn        1 MOL      0.344000
    111 H47         0.4940   -1.9410    0.9410 h1        1 MOL      0.104346
    112 H48        -0.0510   -1.2310    3.4420 hc        1 MOL      0.029602
    113 H49         1.2040    0.2550    1.9070 hc        1 MOL     -0.145420
    114 H50         2.6780   -0.6270    2.1970 hc        1 MOL     -0.145420
    115 H51         1.1590   -1.6540    5.1850 hc        1 MOL      0.058356
    116 H52         1.3820   -3.2570    4.3450 hc        1 MOL      0.058356
    117 H53         2.6600   -2.0560    4.3530 hc        1 MOL      0.058356
    118 H54         2.8210    0.3550    4.4740 hc        1 MOL      0.003098
    119 H55         2.4380    1.6630    3.3930 hc        1 MOL      0.003098
    120 H56         1.1930    0.8750    4.4100 hc        1 MOL      0.003098
    121 N11         2.8470   -3.0410    0.7060 n         1 MOL     -0.150671
    122 C40         4.0640   -3.8090    0.3210 c3        1 MOL      0.052509
    123 C41         5.3060   -3.0380    0.4530 c         1 MOL      0.388524
    124 O16         5.2390   -1.8140    0.5780 o         1 MOL     -0.377036
    125 C42         4.0250   -4.4840   -1.1210 c3        1 MOL      0.173483
    126 O17         3.9400   -3.4320   -2.0450 oh        1 MOL     -0.592700
    127 H57         2.7080   -2.1390    0.2620 hn        1 MOL      0.128994
    128 H58         4.2190   -4.6280    1.0260 h1        1 MOL      0.066557
    129 H59         3.1800   -5.1600   -1.2380 h1        1 MOL     -0.013975
    130 H60         4.9470   -5.0390   -1.2940 h1        1 MOL     -0.013975
    131 H61         4.0500   -3.7730   -2.9430 ho        1 MOL      0.421533
    132 N12         6.5290   -3.6390    0.4090 n         1 MOL     -0.404471
    133 C43         7.7120   -2.9070    0.7030 c3        1 MOL      0.182256
    134 C44         7.8780   -1.5010   -0.0420 c         1 MOL      0.401277
    135 O18         8.5150   -0.6030    0.4780 o         1 MOL     -0.496449
    136 C45         8.9730   -3.7580    0.4170 c3        1 MOL     -0.389132
    137 H62         6.5300   -4.6020    0.1150 hn        1 MOL      0.275645
    138 H63         7.7130   -2.7130    1.7720 h1        1 MOL      0.070112
    139 H64         9.8000   -3.1310    0.7430 hc        1 MOL      0.118845
    140 H65         8.8120   -4.6210    1.0640 hc        1 MOL      0.118845
    141 H66         9.0140   -4.0870   -0.6260 hc        1 MOL      0.118845
    142 N13         7.4260   -1.3570   -1.3050 n         1 MOL     -0.304625
    143 C46         7.6060   -0.1360   -2.1330 c3        1 MOL      0.092806
    144 C47         6.6640    0.9270   -1.5100 c         1 MOL      0.339238
    145 O19         6.9910    2.1070   -1.4170 o         1 MOL     -0.511262
    146 C48         7.2300   -0.5620   -3.5670 c3        1 MOL     -0.247813
    147 H67         6.9380   -2.1650   -1.6610 hn        1 MOL      0.192682
    148 H68         8.6570    0.1670   -2.1000 h1        1 MOL      0.111681
    149 H69         8.0390   -1.1950   -3.9220 hc        1 MOL      0.074930
    150 H70         6.3150   -1.1460   -3.6480 hc        1 MOL      0.074930
    151 H71         7.1990    0.2890   -4.2590 hc        1 MOL      0.074930
    152 N14         5.4530    0.5920   -1.1050 n         1 MOL     -0.226162
    153 C49         4.6130    1.5290   -0.3030 c3        1 MOL     -0.051374
    154 C50         5.0850    1.8420    1.0720 c         1 MOL      0.426610
    155 O20         5.0030    3.0420    1.4320 o         1 MOL     -0.527158
    156 C51         3.1490    1.1260   -0.4390 c3        1 MOL     -0.242189
    157 C52         2.5260    1.1450   -1.8250 c3        1 MOL      0.022118
    158 C53         1.0610    0.6560   -1.6150 c         1 MOL      0.779651
    159 O21         0.0350    1.3510   -1.9020 o         1 MOL     -0.844809
    160 O22         0.7830   -0.4230   -1.0530 o         1 MOL     -0.844809
    161 H72         5.1390   -0.3730   -1.0730 hn        1 MOL      0.220830
    162 H73         4.7670    2.4870   -0.8000 h1        1 MOL      0.099434
    163 H74         2.5640    1.8690    0.1040 hc        1 MOL      0.198113
    164 H75         2.9650    0.1770    0.0620 hc        1 MOL      0.198113
    165 H76         3.0760    0.4290   -2.4380 hc        1 MOL     -0.041149
    166 H77         2.4280    2.1470   -2.2430 hc        1 MOL     -0.041149
    167 N15         5.5830    0.8250    1.8220 n         1 MOL     -0.049682
    168 C54         6.1430    1.0560    3.1550 c3        1 MOL     -0.143275
    169 H78         5.4360    0.7100    3.9090 h1        1 MOL      0.070139
    170 H79         7.0800    0.5080    3.2560 h1        1 MOL      0.070139
    171 H80         6.3270    2.1210    3.2920 h1        1 MOL      0.070139
    172 H81         5.5290   -0.1010    1.4080 hn        1 MOL      0.106815
    173 Ca1        -1.8800   -0.3250   -1.2030 Ca        1 MOL      1.793595
    174 O23        -2.2700   -0.6000   -3.9520 oh        1 MOL     -0.821702
    175 H82        -1.9940   -0.7850   -4.8470 ho        1 MOL      0.393717
    176 H83        -2.7610    0.2140   -4.0170 ho        1 MOL      0.393717
    177 O24        -1.6130   -2.7770   -2.2930 oh        1 MOL     -0.821702
    178 H84        -1.3960   -3.5100   -1.7180 ho        1 MOL      0.393717
    179 H85        -1.0270   -2.8620   -3.0350 ho        1 MOL      0.393717
@<TRIPOS>BOND
     1    1    2 1   
     2    1    4 1   
     3    1    5 1   
     4    1    6 1   
     5    2    3 2   
     6    2    7 1   
     7    7    8 1   
     8    7   15 1   
     9    8    9 1   
    10    8   11 1   
    11    8   16 1   
    12    9   10 2   
    13    9   19 1   
    14   11   12 1   
    15   11   17 1   
    16   11   18 1   
    17   12   13 1   
    18   12   14 1   
    19   19   20 1   
    20   19   28 1   
    21   20   21 1   
    22   20   23 1   
    23   20   29 1   
    24   21   22 2   
    25   21   41 1   
    26   23   24 1   
    27   23   30 1   
    28   23   31 1   
    29   24   25 1   
    30   24   32 1   
    31   24   33 1   
    32   25   26 1   
    33   25   34 1   
    34   25   35 1   
    35   26   27 1   
    36   26   36 1   
    37   26   37 1   
    38   27   38 1   
    39   27   39 1   
    40   27   40 1   
    41   41   42 1   
    42   41   49 1   
    43   42   43 1   
    44   42   45 1   
    45   42   50 1   
    46   43   44 2   
    47   43   53 1   
    48   45   46 1   
    49   45   51 1   
    50   45   52 1   
    51   46   47 1   
    52   46   48 1   
    53   53   54 1   
    54   53   57 1   
    55   54   55 1   
    56   54   58 1   
    57   54   59 1   
    58   55   56 2   
    59   55   60 1   
    60   60   61 1   
    61   60   68 1   
    62   61   62 1   
    63   61   64 1   
    64   61   69 1   
    65   62   63 2   
    66   62   74 1   
    67   64   65 1   
    68   64   70 1   
    69   64   71 1   
    70   65   66 1   
    71   65   67 2   
    72   66   72 1   
    73   66   73 1   
    74   74   75 1   
    75   74   78 1   
    76   75   76 1   
    77   75   79 1   
    78   75   80 1   
    79   76   77 2   
    80   76   81 1   
    81   81   82 1   
    82   81   93 1   
    83   82   83 1   
    84   82   85 1   
    85   82   94 1   
    86   83   84 2   
    87   83  102 1   
    88   85   86 1   
    89   85   95 1   
    90   85   96 1   
    91   86   87 ar  
    92   86   88 ar  
    93   87   89 ar  
    94   87   97 1   
    95   88   90 ar  
    96   88   98 1   
    97   89   91 ar  
    98   89   99 1   
    99   90   91 ar  
   100   90  100 1   
   101   91   92 1   
   102   92  101 1   
   103  102  103 1   
   104  102  110 1   
   105  103  104 1   
   106  103  106 1   
   107  103  111 1   
   108  104  105 2   
   109  104  121 1   
   110  106  107 1   
   111  106  108 1   
   112  106  112 1   
   113  107  109 1   
   114  107  113 1   
   115  107  114 1   
   116  108  115 1   
   117  108  116 1   
   118  108  117 1   
   119  109  118 1   
   120  109  119 1   
   121  109  120 1   
   122  121  122 1   
   123  121  127 1   
   124  122  123 1   
   125  122  125 1   
   126  122  128 1   
   127  123  124 2   
   128  123  132 1   
   129  125  126 1   
   130  125  129 1   
   131  125  130 1   
   132  126  131 1   
   133  132  133 1   
   134  132  137 1   
   135  133  134 1   
   136  133  136 1   
   137  133  138 1   
   138  134  135 2   
   139  134  142 1   
   140  136  139 1   
   141  136  140 1   
   142  136  141 1   
   143  142  143 1   
   144  142  147 1   
   145  143  144 1   
   146  143  146 1   
   147  143  148 1   
   148  144  145 2   
   149  144  152 1   
   150  146  149 1   
   151  146  150 1   
   152  146  151 1   
   153  152  153 1   
   154  152  161 1   
   155  153  154 1   
   156  153  156 1   
   157  153  162 1   
   158  154  155 2   
   159  154  167 1   
   160  156  157 1   
   161  156  163 1   
   162  156  164 1   
   163  157  158 1   
   164  157  165 1   
   165  157  166 1   
   166  158  159 1   
   167  158  160 1   
   168  167  168 1   
   169  167  172 1   
   170  168  169 1   
   171  168  170 1   
   172  168  171 1   
   173  174  175 1   
   174  174  176 1   
   175  177  178 1   
   176  177  179 1   
@<TRIPOS>SUBSTRUCTURE
     1 MOL         1 TEMP              0 ****  ****    0 ROOT
