@<TRIPOS>MOLECULE
MOL
  189   185     1     0     0
SMALL
resp


@<TRIPOS>ATOM
      1 C1          0.1680   -4.3430    5.9580 c3        1 MOL     -0.392988
      2 C2          0.7470   -3.8740    4.5880 c         1 MOL      0.738617
      3 O1          0.6960   -2.6960    4.2200 o         1 MOL     -0.619025
      4 H1         -0.0330   -3.4740    6.5840 hc        1 MOL      0.101305
      5 H2         -0.7590   -4.8930    5.7920 hc        1 MOL      0.101305
      6 H3          0.8900   -4.9900    6.4560 hc        1 MOL      0.101305
      7 N1          1.3200   -4.7510    3.7700 n         1 MOL     -0.614484
      8 C3          1.9440   -4.3530    2.4500 c3        1 MOL      0.273133
      9 C4          1.5340   -5.2950    1.2730 c         1 MOL      0.428475
     10 O2          1.6600   -6.5010    1.4150 o         1 MOL     -0.559403
     11 C5          3.5090   -4.2470    2.6680 c3        1 MOL     -0.245491
     12 C6          4.1350   -3.4320    1.5480 c         1 MOL      0.842495
     13 O3          5.3570   -3.3240    1.5930 o         1 MOL     -0.731375
     14 O4          3.5340   -2.7880    0.5860 o         1 MOL     -0.731375
     15 H4          1.4470   -5.7100    4.0610 hn        1 MOL      0.312241
     16 H5          1.6810   -3.3370    2.1560 h1        1 MOL      0.013099
     17 H6          3.9290   -5.2440    2.5490 hc        1 MOL      0.048636
     18 H7          3.7880   -3.8440    3.6380 hc        1 MOL      0.048636
     19 N2          1.0530   -4.6130    0.2120 n         1 MOL     -0.269985
     20 C7          0.5870   -5.1190   -1.1350 c3        1 MOL      0.016058
     21 C8          1.6260   -5.0080   -2.2450 c         1 MOL      0.700812
     22 O5          1.5520   -5.9110   -3.0860 o         1 MOL     -0.593292
     23 C9         -0.8210   -4.4350   -1.5460 c3        1 MOL      0.142393
     24 C10        -1.8520   -4.8110   -0.4090 c3        1 MOL     -0.056708
     25 C11        -1.3280   -4.8750   -2.9300 c3        1 MOL     -0.317159
     26 C12        -3.2290   -4.1200   -0.4330 c3        1 MOL     -0.089341
     27 H8          0.9200   -3.6320    0.3760 hn        1 MOL      0.139363
     28 H9          0.3830   -6.1890   -1.1230 h1        1 MOL      0.037427
     29 H10        -0.8060   -3.3460   -1.5780 hc        1 MOL      0.023562
     30 H11        -1.4770   -4.7270    0.6100 hc        1 MOL      0.009102
     31 H12        -2.0690   -5.8770   -0.3620 hc        1 MOL      0.009102
     32 H13        -2.2950   -4.3890   -3.0440 hc        1 MOL      0.071942
     33 H14        -0.6840   -4.4830   -3.7200 hc        1 MOL      0.071942
     34 H15        -1.4120   -5.9460   -3.0760 hc        1 MOL      0.071942
     35 H16        -3.0260   -3.1150   -0.7980 hc        1 MOL      0.033621
     36 H17        -3.8900   -4.5440   -1.1850 hc        1 MOL      0.033621
     37 H18        -3.7110   -4.0930    0.5380 hc        1 MOL      0.033621
     38 N3          2.6430   -4.1040   -2.1250 n         1 MOL     -0.612028
     39 C13         3.4600   -3.6500   -3.3400 c3        1 MOL      0.051669
     40 C14         4.8620   -3.2750   -3.0660 c         1 MOL      0.478053
     41 O6          5.6360   -3.1910   -4.0330 o         1 MOL     -0.617603
     42 C15         2.7020   -2.4820   -4.0110 c3        1 MOL     -0.197953
     43 C16         2.1730   -1.3900   -3.0810 c         1 MOL      0.749894
     44 O7          2.6650   -1.1650   -1.9620 o         1 MOL     -0.719899
     45 O8          1.3060   -0.6240   -3.5790 o         1 MOL     -0.719899
     46 H19         2.5400   -3.4110   -1.3960 hn        1 MOL      0.273478
     47 H20         3.5030   -4.4850   -4.0450 h1        1 MOL      0.082369
     48 H21         1.7990   -2.8720   -4.4970 hc        1 MOL      0.060488
     49 H22         3.2750   -2.0730   -4.8410 hc        1 MOL      0.060488
     50 N4          5.2800   -2.9550   -1.8890 n         1 MOL     -0.043654
     51 C17         6.6380   -2.7270   -1.5110 c3        1 MOL     -0.499238
     52 C18         7.2420   -1.2950   -1.7770 c         1 MOL      0.639140
     53 O9          8.3910   -0.9900   -1.4550 o         1 MOL     -0.606138
     54 H23         4.6390   -3.2300   -1.1570 hn        1 MOL      0.180074
     55 H24         7.1890   -3.3660   -2.1930 h1        1 MOL      0.182626
     56 H25         6.6690   -2.9630   -0.4500 h1        1 MOL      0.182626
     57 N5          6.4110   -0.3260   -2.2570 n         1 MOL     -0.385754
     58 C19         6.6650    1.0690   -2.5410 c3        1 MOL      0.119469
     59 C20         7.2790    1.8950   -1.3910 c         1 MOL      0.364261
     60 O10         7.8640    2.9580   -1.5840 o         1 MOL     -0.543086
     61 C21         5.3730    1.7190   -2.9910 c3        1 MOL     -0.391197
     62 C22         4.2350    1.6960   -2.0420 c         1 MOL      0.782535
     63 O11         4.2500    1.0520   -0.9460 o         1 MOL     -0.680935
     64 O12         3.2490    2.4180   -2.3360 o         1 MOL     -0.680935
     65 H26         5.4900   -0.6730   -2.4770 hn        1 MOL      0.261803
     66 H27         7.2940    1.1140   -3.4280 h1        1 MOL      0.056826
     67 H28         5.0060    1.1980   -3.8750 hc        1 MOL      0.117741
     68 H29         5.4830    2.7800   -3.2080 hc        1 MOL      0.117741
     69 N6          7.0670    1.4080   -0.1260 n         1 MOL     -0.088146
     70 C23         7.3560    2.1730    1.1160 c3        1 MOL     -0.328659
     71 C24         6.2890    3.1750    1.6140 c         1 MOL      0.600258
     72 O13         6.4550    3.9540    2.5670 o         1 MOL     -0.605099
     73 H30         6.8730    0.4130   -0.0510 hn        1 MOL      0.251822
     74 H31         8.2770    2.7290    0.9960 h1        1 MOL      0.118244
     75 H32         7.4740    1.4190    1.8950 h1        1 MOL      0.118244
     76 N7          5.1510    3.1780    0.8770 n         1 MOL     -0.297639
     77 C25         3.9860    4.0220    1.2110 c3        1 MOL      0.135084
     78 C26         2.7580    3.1240    1.6940 c         1 MOL      0.476320
     79 O14         2.8850    1.8920    1.7810 o         1 MOL     -0.604337
     80 C27         3.6100    4.9260    0.0670 c3        1 MOL     -0.251922
     81 C28         4.8230    5.4240   -0.7690 c3        1 MOL     -0.140583
     82 C29         4.4110    6.5580   -1.6920 c         1 MOL      0.719060
     83 N8          5.3820    7.1650   -2.4350 n         1 MOL     -0.879444
     84 O15         3.2970    6.9870   -1.7390 o         1 MOL     -0.561026
     85 H33         5.0710    2.4460    0.1900 hn        1 MOL      0.210302
     86 H34         4.1850    4.6890    2.0550 h1        1 MOL      0.026884
     87 H35         3.0870    5.8050    0.4450 hc        1 MOL      0.103877
     88 H36         3.0020    4.3280   -0.6200 hc        1 MOL      0.103877
     89 H37         5.4280    4.7180   -1.3490 hc        1 MOL      0.061674
     90 H38         5.6160    5.8650   -0.1630 hc        1 MOL      0.061674
     91 H39         6.3370    6.8550   -2.3940 hn        1 MOL      0.361182
     92 H40         5.1650    7.9730   -2.9960 hn        1 MOL      0.361182
     93 N9          1.6710    3.7480    2.0100 n         1 MOL     -0.406531
     94 C30         0.3660    3.2430    2.3580 c3        1 MOL      0.323802
     95 C31        -0.6770    3.4020    1.2320 c         1 MOL      0.322827
     96 O16        -1.2610    4.4800    1.1720 o         1 MOL     -0.550618
     97 C32        -0.2850    3.9610    3.5510 c3        1 MOL      0.088819
     98 C33        -1.7110    3.5260    3.9670 c3        1 MOL     -0.132740
     99 C34         0.5780    3.6580    4.8050 c3        1 MOL     -0.132740
    100 H41         1.7280    4.7470    1.8680 hn        1 MOL      0.219975
    101 H42         0.3190    2.1830    2.6300 h1        1 MOL      0.042225
    102 H43        -0.4850    5.0130    3.3640 hc        1 MOL     -0.002653
    103 H44        -2.0260    3.9950    4.9030 hc        1 MOL      0.016631
    104 H45        -2.4620    3.8360    3.2430 hc        1 MOL      0.016631
    105 H46        -1.8160    2.4410    4.0590 hc        1 MOL      0.016631
    106 H47         0.0400    4.0970    5.6510 hc        1 MOL      0.016631
    107 H48         0.6630    2.5810    4.8790 hc        1 MOL      0.016631
    108 H49         1.5920    4.0360    4.8000 hc        1 MOL      0.016631
    109 N10        -1.0620    2.3440    0.5370 n         1 MOL     -0.208211
    110 C35        -2.2310    2.2420   -0.3680 c3        1 MOL     -0.017525
    111 C36        -3.6260    2.5090    0.3510 c         1 MOL      0.163068
    112 O17        -3.7570    2.2410    1.5600 o         1 MOL     -0.264466
    113 C37        -2.1970    0.9490   -1.2180 c3        1 MOL     -0.119377
    114 C38        -3.2710    0.9670   -2.2790 c         1 MOL      0.618843
    115 N11        -3.1750    1.8020   -3.2870 n         1 MOL     -0.619517
    116 O18        -4.2150    0.1650   -2.2260 o         1 MOL     -0.549738
    117 H50        -0.5480    1.4810    0.6510 hn        1 MOL      0.221291
    118 H51        -2.2380    2.9830   -1.1620 h1        1 MOL      0.071450
    119 H52        -2.3380    0.0450   -0.6320 hc        1 MOL      0.075327
    120 H53        -1.2360    0.8880   -1.7200 hc        1 MOL      0.075327
    121 H54        -2.4710    2.5290   -3.2350 hn        1 MOL      0.294827
    122 H55        -3.9300    1.8150   -3.9540 hn        1 MOL      0.294827
    123 N12        -4.5230    2.9350   -0.4140 n         1 MOL     -0.021552
    124 C39        -5.9410    3.0180    0.0620 c3        1 MOL     -0.062631
    125 C40        -6.6080    1.6940    0.3880 c         1 MOL      0.375276
    126 O19        -7.5990    1.7040    1.1240 o         1 MOL     -0.568738
    127 C41        -6.8690    3.8320   -0.9120 c3        1 MOL      0.045257
    128 C42        -7.3180    3.0140   -2.0970 ca        1 MOL      0.108814
    129 C43        -6.5010    2.8980   -3.2450 ca        1 MOL     -0.349778
    130 C44        -8.4630    2.2250   -1.9780 ca        1 MOL     -0.349778
    131 C45        -6.9370    2.1370   -4.3600 ca        1 MOL     -0.123243
    132 C46        -8.9010    1.4100   -3.0650 ca        1 MOL     -0.123243
    133 C47        -8.0830    1.3210   -4.2500 ca        1 MOL      0.257538
    134 O20        -8.4890    0.5520   -5.3210 oh        1 MOL     -0.569496
    135 H56        -4.2710    3.3180   -1.3170 hn        1 MOL      0.119612
    136 H57        -5.9670    3.5890    0.9840 h1        1 MOL      0.072554
    137 H58        -6.2860    4.6400   -1.3640 hc        1 MOL      0.000332
    138 H59        -7.7100    4.2920   -0.3810 hc        1 MOL      0.000332
    139 H60        -5.5190    3.3410   -3.1970 ha        1 MOL      0.197094
    140 H61        -8.9890    2.2240   -1.0300 ha        1 MOL      0.197094
    141 H62        -6.3400    2.1720   -5.2590 ha        1 MOL      0.125810
    142 H63        -9.8030    0.8420   -2.9540 ha        1 MOL      0.125810
    143 H64        -9.2040   -0.0680   -5.1630 ho        1 MOL      0.418416
    144 N13        -6.1480    0.5640   -0.1020 n         1 MOL      0.240428
    145 C48        -6.3520   -0.8110    0.3770 c3        1 MOL     -0.248088
    146 C49        -5.5470   -1.2140    1.5780 c         1 MOL      0.378452
    147 O21        -5.8650   -2.2510    2.1270 o         1 MOL     -0.488070
    148 C50        -6.2490   -1.8650   -0.8180 c3        1 MOL      0.293142
    149 C51        -7.2940   -1.7480   -1.9120 c3        1 MOL     -0.253309
    150 C52        -8.7770   -2.1300   -1.5570 c         1 MOL      0.714940
    151 O22        -9.7640   -1.6270   -2.1510 o         1 MOL     -0.723172
    152 O23        -8.9470   -2.8610   -0.5870 o         1 MOL     -0.723172
    153 H65        -5.4300    0.5820   -0.8120 hn        1 MOL      0.023927
    154 H66        -7.4180   -0.7890    0.6130 h1        1 MOL      0.139343
    155 H67        -6.3170   -2.8670   -0.3900 hc        1 MOL     -0.040301
    156 H68        -5.2600   -1.8420   -1.2650 hc        1 MOL     -0.040301
    157 H69        -7.0620   -2.4060   -2.7510 hc        1 MOL      0.015690
    158 H70        -7.3960   -0.7150   -2.2670 hc        1 MOL      0.015690
    159 N14        -4.3760   -0.5540    1.8910 n         1 MOL     -0.201990
    160 C53        -3.5340   -0.9600    3.0750 c3        1 MOL     -0.032069
    161 C54        -3.8740   -0.1450    4.3540 c         1 MOL      0.493604
    162 O24        -3.9800   -0.7180    5.4260 o         1 MOL     -0.578744
    163 C55        -2.1010   -0.6560    2.7570 c3        1 MOL     -0.049192
    164 C56        -1.6230   -1.5210    1.5890 c3        1 MOL      0.020766
    165 C57        -0.1800   -1.1050    1.2930 c         1 MOL      0.724717
    166 O25         0.4980   -1.7860    0.5280 o         1 MOL     -0.729293
    167 O26         0.3260   -0.0440    1.6920 o         1 MOL     -0.729293
    168 H71        -4.2250    0.2650    1.3340 hn        1 MOL      0.022298
    169 H72        -3.7010   -2.0180    3.2670 h1        1 MOL      0.079343
    170 H73        -1.4820   -0.7110    3.6400 hc        1 MOL      0.025919
    171 H74        -2.1780    0.3820    2.4280 hc        1 MOL      0.025919
    172 H75        -2.2710   -1.4800    0.7070 hc        1 MOL      0.041545
    173 H76        -1.6840   -2.5420    1.9460 hc        1 MOL      0.041545
    174 N15        -4.2800    1.1340    4.2180 n         1 MOL     -0.044886
    175 C58        -4.7880    2.0090    5.2960 c3        1 MOL     -0.234711
    176 H77        -3.9480    2.4780    5.8080 h1        1 MOL      0.089822
    177 H78        -5.4290    2.7790    4.8680 h1        1 MOL      0.089822
    178 H79        -5.3600    1.4130    6.0080 h1        1 MOL      0.089822
    179 H80        -4.1990    1.4840    3.2720 hn        1 MOL      0.025162
    180 Ca1         2.5920   -0.2700    0.5050 Ca        1 MOL      1.672053
    181 O27         2.5530   -1.1670    3.1270 oh        1 MOL     -0.858761
    182 H81         1.7960   -1.6580    3.4550 ho        1 MOL      0.407708
    183 H82         2.9020   -0.7210    3.9040 ho        1 MOL      0.407708
    184 O28         5.3240   -0.4310    1.2450 oh        1 MOL     -0.858761
    185 H83         5.4140   -0.2670    2.1880 ho        1 MOL      0.407708
    186 H84         5.3330   -1.3870    1.1730 ho        1 MOL      0.407708
    187 O29         1.1480    1.2250   -1.3060 oh        1 MOL     -0.858761
    188 H85         0.9690    0.4860   -1.8810 ho        1 MOL      0.407708
    189 H86         1.7550    1.7850   -1.7990 ho        1 MOL      0.407708
@<TRIPOS>BOND
     1    1    2 1   
     2    1    4 1   
     3    1    5 1   
     4    1    6 1   
     5    2    3 2   
     6    2    7 1   
     7    7    8 1   
     8    7   15 1   
     9    8    9 1   
    10    8   11 1   
    11    8   16 1   
    12    9   10 2   
    13    9   19 1   
    14   11   12 1   
    15   11   17 1   
    16   11   18 1   
    17   12   13 1   
    18   12   14 1   
    19   19   20 1   
    20   19   27 1   
    21   20   21 1   
    22   20   23 1   
    23   20   28 1   
    24   21   22 2   
    25   21   38 1   
    26   23   24 1   
    27   23   25 1   
    28   23   29 1   
    29   24   26 1   
    30   24   30 1   
    31   24   31 1   
    32   25   32 1   
    33   25   33 1   
    34   25   34 1   
    35   26   35 1   
    36   26   36 1   
    37   26   37 1   
    38   38   39 1   
    39   38   46 1   
    40   39   40 1   
    41   39   42 1   
    42   39   47 1   
    43   40   41 2   
    44   40   50 1   
    45   42   43 1   
    46   42   48 1   
    47   42   49 1   
    48   43   44 1   
    49   43   45 1   
    50   50   51 1   
    51   50   54 1   
    52   51   52 1   
    53   51   55 1   
    54   51   56 1   
    55   52   53 2   
    56   52   57 1   
    57   57   58 1   
    58   57   65 1   
    59   58   59 1   
    60   58   61 1   
    61   58   66 1   
    62   59   60 2   
    63   59   69 1   
    64   61   62 1   
    65   61   67 1   
    66   61   68 1   
    67   62   63 1   
    68   62   64 1   
    69   69   70 1   
    70   69   73 1   
    71   70   71 1   
    72   70   74 1   
    73   70   75 1   
    74   71   72 2   
    75   71   76 1   
    76   76   77 1   
    77   76   85 1   
    78   77   78 1   
    79   77   80 1   
    80   77   86 1   
    81   78   79 2   
    82   78   93 1   
    83   80   81 1   
    84   80   87 1   
    85   80   88 1   
    86   81   82 1   
    87   81   89 1   
    88   81   90 1   
    89   82   83 1   
    90   82   84 2   
    91   83   91 1   
    92   83   92 1   
    93   93   94 1   
    94   93  100 1   
    95   94   95 1   
    96   94   97 1   
    97   94  101 1   
    98   95   96 2   
    99   95  109 1   
   100   97   98 1   
   101   97   99 1   
   102   97  102 1   
   103   98  103 1   
   104   98  104 1   
   105   98  105 1   
   106   99  106 1   
   107   99  107 1   
   108   99  108 1   
   109  109  110 1   
   110  109  117 1   
   111  110  111 1   
   112  110  113 1   
   113  110  118 1   
   114  111  112 2   
   115  111  123 1   
   116  113  114 1   
   117  113  119 1   
   118  113  120 1   
   119  114  115 1   
   120  114  116 2   
   121  115  121 1   
   122  115  122 1   
   123  123  124 1   
   124  123  135 1   
   125  124  125 1   
   126  124  127 1   
   127  124  136 1   
   128  125  126 2   
   129  125  144 1   
   130  127  128 1   
   131  127  137 1   
   132  127  138 1   
   133  128  129 ar  
   134  128  130 ar  
   135  129  131 ar  
   136  129  139 1   
   137  130  132 ar  
   138  130  140 1   
   139  131  133 ar  
   140  131  141 1   
   141  132  133 ar  
   142  132  142 1   
   143  133  134 1   
   144  134  143 1   
   145  144  145 1   
   146  144  153 1   
   147  145  146 1   
   148  145  148 1   
   149  145  154 1   
   150  146  147 2   
   151  146  159 1   
   152  148  149 1   
   153  148  155 1   
   154  148  156 1   
   155  149  150 1   
   156  149  157 1   
   157  149  158 1   
   158  150  151 1   
   159  150  152 1   
   160  159  160 1   
   161  159  168 1   
   162  160  161 1   
   163  160  163 1   
   164  160  169 1   
   165  161  162 2   
   166  161  174 1   
   167  163  164 1   
   168  163  170 1   
   169  163  171 1   
   170  164  165 1   
   171  164  172 1   
   172  164  173 1   
   173  165  166 1   
   174  165  167 1   
   175  174  175 1   
   176  174  179 1   
   177  175  176 1   
   178  175  177 1   
   179  175  178 1   
   180  181  182 1   
   181  181  183 1   
   182  184  185 1   
   183  184  186 1   
   184  187  188 1   
   185  187  189 1   
@<TRIPOS>SUBSTRUCTURE
     1 MOL         1 TEMP              0 ****  ****    0 ROOT
