@<TRIPOS>MOLECULE
MOL
  176   174     1     0     0
SMALL
resp


@<TRIPOS>ATOM
      1 C1          2.5640    4.9300    6.1960 c3        1 MOL     -0.350614
      2 C2          2.3200    4.0800    4.9090 c         1 MOL      0.707692
      3 O1          3.3300    3.7720    4.2710 o         1 MOL     -0.551078
      4 H1          2.7570    5.9660    5.9150 hc        1 MOL      0.091888
      5 H2          1.6830    4.8860    6.8350 hc        1 MOL      0.091888
      6 H3          3.4250    4.5350    6.7350 hc        1 MOL      0.091888
      7 N1          1.0910    3.7300    4.4740 n         1 MOL     -0.603768
      8 C3          0.7760    3.2710    3.1740 c3        1 MOL      0.010397
      9 C4          0.7420    4.3980    2.1710 c         1 MOL      0.651467
     10 O2          0.5440    5.5890    2.4620 o         1 MOL     -0.596649
     11 C5         -0.5430    2.4170    3.2230 c3        1 MOL     -0.075993
     12 C6         -0.9560    1.7420    1.9750 c         1 MOL      0.812857
     13 O3         -0.4980    2.0480    0.8750 o         1 MOL     -0.780296
     14 O4         -1.8920    0.9260    2.0230 o         1 MOL     -0.780296
     15 H4          0.2580    4.0800    4.9330 hn        1 MOL      0.327391
     16 H5          1.5220    2.5680    2.8320 h1        1 MOL      0.025646
     17 H6         -1.3850    3.0050    3.5840 hc        1 MOL      0.028611
     18 H7         -0.3230    1.5910    3.8920 hc        1 MOL      0.028611
     19 N2          0.9490    4.1500    0.8900 n         1 MOL     -0.415238
     20 C7          1.1140    4.9670   -0.3280 c3        1 MOL     -0.024586
     21 C8         -0.1830    5.2290   -1.1300 c         1 MOL      0.487102
     22 O5         -0.2730    6.2390   -1.7290 o         1 MOL     -0.541723
     23 C9          2.2020    4.2910   -1.2300 c3        1 MOL      0.114785
     24 C10         3.0300    5.2690   -2.0460 c3        1 MOL     -0.027495
     25 C11         4.1120    4.5610   -2.9310 c3        1 MOL      0.020430
     26 C12         4.9700    5.6190   -3.5800 c3        1 MOL     -0.021332
     27 N3          5.8620    4.9330   -4.5890 n4        1 MOL     -0.277003
     28 H8          0.9420    3.1480    0.7390 hn        1 MOL      0.196922
     29 H9          1.4430    5.9780   -0.0470 h1        1 MOL      0.088815
     30 H10         1.7070    3.5420   -1.8420 hc        1 MOL     -0.018913
     31 H11         2.8860    3.6660   -0.6640 hc        1 MOL     -0.018913
     32 H12         3.5280    5.9060   -1.3180 hc        1 MOL      0.015352
     33 H13         2.3860    5.9400   -2.6160 hc        1 MOL      0.015352
     34 H14         3.6200    3.8690   -3.6080 hc        1 MOL      0.039506
     35 H15         4.7630    4.0280   -2.2280 hc        1 MOL      0.039506
     36 H16         5.6350    6.0210   -2.8160 hx        1 MOL      0.097624
     37 H17         4.3430    6.3610   -4.0760 hx        1 MOL      0.097624
     38 H18         6.5170    5.6410   -4.8770 hn        1 MOL      0.303215
     39 H19         6.2450    4.1680   -4.0490 hn        1 MOL      0.303215
     40 H20         5.3950    4.4780   -5.3550 hn        1 MOL      0.303215
     41 N4         -1.0320    4.1960   -1.1990 n         1 MOL     -0.027334
     42 C13        -2.4960    4.3750   -1.5640 c3        1 MOL     -0.273338
     43 C14        -3.4310    3.7270   -0.6120 c         1 MOL      0.319357
     44 O6         -3.2140    2.5590   -0.2700 o         1 MOL     -0.320797
     45 C15        -2.7440    4.0130   -3.0710 c3        1 MOL     -0.076502
     46 C16        -2.2740    2.6840   -3.6000 c         1 MOL      0.619032
     47 O7         -2.1790    1.7560   -2.7710 o         1 MOL     -0.658797
     48 O8         -1.9970    2.6240   -4.7690 o         1 MOL     -0.658797
     49 H21        -0.8450    3.2810   -0.8280 hn        1 MOL      0.113917
     50 H22        -2.7530    5.4300   -1.4530 h1        1 MOL      0.097898
     51 H23        -2.2810    4.7640   -3.7160 hc        1 MOL      0.042585
     52 H24        -3.7890    4.1130   -3.3560 hc        1 MOL      0.042585
     53 N5         -4.5240    4.4020   -0.2460 n         1 MOL     -0.264130
     54 C17        -5.4410    3.7620    0.6700 c3        1 MOL     -0.139702
     55 C18        -6.4620    2.9040   -0.0360 c         1 MOL      0.465589
     56 O9         -7.6130    3.2440   -0.1390 o         1 MOL     -0.526944
     57 H25        -4.7100    5.2970   -0.6650 hn        1 MOL      0.306142
     58 H26        -5.9650    4.5530    1.2030 h1        1 MOL      0.095962
     59 H27        -4.8340    3.1440    1.3280 h1        1 MOL      0.095962
     60 N6         -5.9920    1.8100   -0.6130 n         1 MOL     -0.138138
     61 C19        -6.9200    0.8900   -1.2550 c3        1 MOL     -0.060496
     62 C20        -7.5760   -0.0880   -0.2500 c         1 MOL      0.434752
     63 O10        -8.7040   -0.6380   -0.4480 o         1 MOL     -0.551327
     64 C21        -6.1960    0.1130   -2.4000 c3        1 MOL     -0.250737
     65 C22        -5.0580   -0.7750   -1.8360 c         1 MOL      0.588930
     66 N7         -4.8470   -1.9870   -2.2330 n         1 MOL     -0.638620
     67 O11        -4.2880   -0.3790   -1.0020 o         1 MOL     -0.579323
     68 H28        -5.0610    1.5560   -0.3320 hn        1 MOL      0.047811
     69 H29        -7.7000    1.4450   -1.7720 h1        1 MOL      0.138408
     70 H30        -5.8350    0.9280   -3.0190 hc        1 MOL      0.114605
     71 H31        -6.8990   -0.4070   -3.0570 hc        1 MOL      0.114605
     72 H32        -5.5010   -2.5020   -2.8080 hn        1 MOL      0.323749
     73 H33        -4.0060   -2.4500   -1.9000 hn        1 MOL      0.323749
     74 N8         -6.9520   -0.3250    0.8570 n         1 MOL     -0.218084
     75 C23        -7.3720   -1.3160    1.7820 c3        1 MOL     -0.043876
     76 C24        -6.1730   -2.2030    2.3470 c         1 MOL      0.379844
     77 O12        -6.4050   -2.8010    3.4180 o         1 MOL     -0.545005
     78 H34        -6.0920    0.1870    0.9980 hn        1 MOL      0.223591
     79 H35        -8.1450   -1.9540    1.3600 h1        1 MOL      0.096368
     80 H36        -7.8880   -0.8260    2.6040 h1        1 MOL      0.096368
     81 N9         -5.0060   -2.2830    1.7780 n         1 MOL     -0.151866
     82 C25        -3.8450   -3.0470    2.3060 c3        1 MOL      0.004457
     83 C26        -2.5120   -2.4540    1.8220 c         1 MOL      0.443675
     84 O13        -2.4630   -1.6040    0.9070 o         1 MOL     -0.445293
     85 C27        -3.9250   -4.4700    1.7490 c3        1 MOL     -0.217755
     86 C28        -3.9990   -4.6820    0.2040 ca        1 MOL      0.081330
     87 C29        -2.8360   -4.5610   -0.5580 ca        1 MOL     -0.141020
     88 C30        -5.2360   -5.1870   -0.4220 ca        1 MOL     -0.141020
     89 C31        -2.8770   -4.8590   -2.0030 ca        1 MOL     -0.299619
     90 C32        -5.2020   -5.4150   -1.8450 ca        1 MOL     -0.299619
     91 C33        -4.0790   -5.1720   -2.6750 ca        1 MOL      0.351207
     92 O14        -4.0740   -5.5240   -3.9640 oh        1 MOL     -0.486965
     93 H37        -4.8080   -1.8800    0.8710 hn        1 MOL      0.148471
     94 H38        -3.9320   -3.0000    3.3880 h1        1 MOL      0.120927
     95 H39        -4.8010   -4.9770    2.1520 hc        1 MOL      0.088826
     96 H40        -3.0430   -4.9770    2.1550 hc        1 MOL      0.088826
     97 H41        -1.8490   -4.4540   -0.1350 ha        1 MOL      0.162493
     98 H42        -6.1360   -5.4480    0.1160 ha        1 MOL      0.162493
     99 H43        -2.0010   -4.6470   -2.5850 ha        1 MOL      0.162654
    100 H44        -6.1370   -5.7530   -2.2680 ha        1 MOL      0.162654
    101 H45        -3.1760   -5.5490   -4.3130 ho        1 MOL      0.369108
    102 N10        -1.3730   -2.8270    2.5130 n         1 MOL     -0.498091
    103 C34         0.0410   -2.3580    2.1800 c3        1 MOL      0.160339
    104 C35         0.9150   -3.4900    1.5250 c         1 MOL      0.346026
    105 O15         0.7970   -4.7070    1.7850 o         1 MOL     -0.553223
    106 C36         0.5990   -1.6590    3.4700 c3        1 MOL      0.073623
    107 C37         1.8760   -0.8680    3.0350 c3        1 MOL      0.178107
    108 C38         0.8270   -2.6180    4.6900 c3        1 MOL     -0.152221
    109 C39         2.4670   -0.0270    4.1390 c3        1 MOL     -0.190591
    110 H46        -1.4270   -3.3590    3.3670 hn        1 MOL      0.306669
    111 H47         0.0160   -1.5490    1.4420 h1        1 MOL      0.058463
    112 H48        -0.2310   -1.0110    3.7210 hc        1 MOL      0.023670
    113 H49         1.5650   -0.0990    2.3200 hc        1 MOL     -0.108855
    114 H50         2.6650   -1.4460    2.5550 hc        1 MOL     -0.108855
    115 H51         1.3900   -3.4930    4.3520 hc        1 MOL      0.033590
    116 H52         1.3820   -2.1310    5.4850 hc        1 MOL      0.033590
    117 H53        -0.0890   -2.9780    5.1470 hc        1 MOL      0.033590
    118 H54         3.0130   -0.6690    4.8340 hc        1 MOL      0.048430
    119 H55         3.2010    0.7160    3.8320 hc        1 MOL      0.048430
    120 H56         1.6800    0.3780    4.7870 hc        1 MOL      0.048430
    121 N11         1.7640   -3.0990    0.5800 n         1 MOL     -0.153936
    122 C40         2.6450   -4.0240   -0.2290 c3        1 MOL      0.143259
    123 C41         4.1230   -3.7250    0.1340 c         1 MOL      0.306095
    124 O16         4.4830   -2.6470    0.5800 o         1 MOL     -0.290062
    125 C42         2.4570   -3.7230   -1.7480 c3        1 MOL      0.176633
    126 O17         1.0640   -3.6010   -2.2130 oh        1 MOL     -0.558492
    127 H57         1.7730   -2.1020    0.3850 hn        1 MOL      0.119709
    128 H58         2.5090   -5.0840   -0.0260 h1        1 MOL      0.032608
    129 H59         2.9760   -4.5810   -2.1740 h1        1 MOL      0.011080
    130 H60         3.1290   -2.9080   -1.9970 h1        1 MOL      0.011080
    131 H61         0.8430   -4.4840   -2.5360 ho        1 MOL      0.358361
    132 N12         4.9620   -4.7250   -0.0960 n         1 MOL     -0.332370
    133 C43         6.3770   -4.6560    0.1860 c3        1 MOL      0.026179
    134 C44         7.0260   -3.3950   -0.5220 c         1 MOL      0.417423
    135 O18         7.9390   -2.7350    0.0180 o         1 MOL     -0.453361
    136 C45         7.0760   -5.9930   -0.1410 c3        1 MOL     -0.318178
    137 H62         4.6810   -5.5810   -0.5550 hn        1 MOL      0.269580
    138 H63         6.5360   -4.5580    1.2600 h1        1 MOL      0.120301
    139 H64         6.9280   -6.3480   -1.1650 hc        1 MOL      0.108545
    140 H65         8.1620   -5.9550    0.0080 hc        1 MOL      0.108545
    141 H66         6.7550   -6.7720    0.5460 hc        1 MOL      0.108545
    142 N13         6.5520   -3.1150   -1.7780 n         1 MOL     -0.347403
    143 C46         6.9750   -1.9420   -2.5690 c3        1 MOL      0.083352
    144 C47         6.6580   -0.6280   -1.8900 c         1 MOL      0.396826
    145 O19         7.4210    0.3230   -1.9490 o         1 MOL     -0.526186
    146 C48         6.2230   -1.9870   -3.9280 c3        1 MOL     -0.361933
    147 H67         5.9070   -3.7340   -2.2380 hn        1 MOL      0.245429
    148 H68         8.0570   -1.9060   -2.6440 h1        1 MOL      0.100350
    149 H69         5.1700   -1.7110   -3.7870 hc        1 MOL      0.112961
    150 H70         6.7300   -1.2600   -4.5600 hc        1 MOL      0.112961
    151 H71         6.1660   -2.9600   -4.4210 hc        1 MOL      0.112961
    152 N14         5.5720   -0.6140   -1.1050 n         1 MOL     -0.015662
    153 C49         5.0840    0.5010   -0.2920 c3        1 MOL     -0.112221
    154 C50         5.8480    0.6130    1.0550 c         1 MOL      0.522141
    155 O20         6.1900    1.6780    1.4620 o         1 MOL     -0.534704
    156 C51         3.5200    0.4150   -0.1090 c3        1 MOL     -0.106315
    157 C52         2.7460    0.1950   -1.3990 c3        1 MOL     -0.076015
    158 C53         1.2320    0.1940   -1.2690 c         1 MOL      0.859027
    159 O21         0.7180   -0.5590   -0.3820 o         1 MOL     -0.737839
    160 O22         0.4670    0.8940   -1.9540 o         1 MOL     -0.737839
    161 H72         5.0500   -1.4730   -1.0760 hn        1 MOL     -0.102269
    162 H73         5.4140    1.3590   -0.8800 h1        1 MOL      0.056132
    163 H74         3.1660    1.3550    0.3220 hc        1 MOL      0.125172
    164 H75         3.1830   -0.3790    0.5490 hc        1 MOL      0.125172
    165 H76         3.0040   -0.8240   -1.7070 hc        1 MOL     -0.015185
    166 H77         3.0760    0.9350   -2.1410 hc        1 MOL     -0.015185
    167 N15         6.2230   -0.5230    1.6730 n         1 MOL     -0.137495
    168 C54         7.0130   -0.5720    2.9350 c3        1 MOL     -0.162553
    169 H78         7.3530    0.4320    3.1900 h1        1 MOL      0.081709
    170 H79         6.3880   -0.9590    3.7400 h1        1 MOL      0.081709
    171 H80         7.8760   -1.2230    2.7990 h1        1 MOL      0.081709
    172 H81         6.0000   -1.3780    1.1840 hn        1 MOL      0.120249
    173 Ca1        -1.7140    0.4030   -0.6340 Ca        1 MOL      1.683179
    174 O23        -1.4250   -1.8170   -2.2860 oh        1 MOL     -0.900183
    175 H82        -0.5710   -2.2510   -2.2540 ho        1 MOL      0.407177
    176 H83        -1.7970   -2.0950   -3.1220 ho        1 MOL      0.407177
@<TRIPOS>BOND
     1    1    2 1   
     2    1    4 1   
     3    1    5 1   
     4    1    6 1   
     5    2    3 2   
     6    2    7 1   
     7    7    8 1   
     8    7   15 1   
     9    8    9 1   
    10    8   11 1   
    11    8   16 1   
    12    9   10 2   
    13    9   19 1   
    14   11   12 1   
    15   11   17 1   
    16   11   18 1   
    17   12   13 1   
    18   12   14 1   
    19   19   20 1   
    20   19   28 1   
    21   20   21 1   
    22   20   23 1   
    23   20   29 1   
    24   21   22 2   
    25   21   41 1   
    26   23   24 1   
    27   23   30 1   
    28   23   31 1   
    29   24   25 1   
    30   24   32 1   
    31   24   33 1   
    32   25   26 1   
    33   25   34 1   
    34   25   35 1   
    35   26   27 1   
    36   26   36 1   
    37   26   37 1   
    38   27   38 1   
    39   27   39 1   
    40   27   40 1   
    41   41   42 1   
    42   41   49 1   
    43   42   43 1   
    44   42   45 1   
    45   42   50 1   
    46   43   44 2   
    47   43   53 1   
    48   45   46 1   
    49   45   51 1   
    50   45   52 1   
    51   46   47 1   
    52   46   48 1   
    53   53   54 1   
    54   53   57 1   
    55   54   55 1   
    56   54   58 1   
    57   54   59 1   
    58   55   56 2   
    59   55   60 1   
    60   60   61 1   
    61   60   68 1   
    62   61   62 1   
    63   61   64 1   
    64   61   69 1   
    65   62   63 2   
    66   62   74 1   
    67   64   65 1   
    68   64   70 1   
    69   64   71 1   
    70   65   66 1   
    71   65   67 2   
    72   66   72 1   
    73   66   73 1   
    74   74   75 1   
    75   74   78 1   
    76   75   76 1   
    77   75   79 1   
    78   75   80 1   
    79   76   77 2   
    80   76   81 1   
    81   81   82 1   
    82   81   93 1   
    83   82   83 1   
    84   82   85 1   
    85   82   94 1   
    86   83   84 2   
    87   83  102 1   
    88   85   86 1   
    89   85   95 1   
    90   85   96 1   
    91   86   87 ar  
    92   86   88 ar  
    93   87   89 ar  
    94   87   97 1   
    95   88   90 ar  
    96   88   98 1   
    97   89   91 ar  
    98   89   99 1   
    99   90   91 ar  
   100   90  100 1   
   101   91   92 1   
   102   92  101 1   
   103  102  103 1   
   104  102  110 1   
   105  103  104 1   
   106  103  106 1   
   107  103  111 1   
   108  104  105 2   
   109  104  121 1   
   110  106  107 1   
   111  106  108 1   
   112  106  112 1   
   113  107  109 1   
   114  107  113 1   
   115  107  114 1   
   116  108  115 1   
   117  108  116 1   
   118  108  117 1   
   119  109  118 1   
   120  109  119 1   
   121  109  120 1   
   122  121  122 1   
   123  121  127 1   
   124  122  123 1   
   125  122  125 1   
   126  122  128 1   
   127  123  124 2   
   128  123  132 1   
   129  125  126 1   
   130  125  129 1   
   131  125  130 1   
   132  126  131 1   
   133  132  133 1   
   134  132  137 1   
   135  133  134 1   
   136  133  136 1   
   137  133  138 1   
   138  134  135 2   
   139  134  142 1   
   140  136  139 1   
   141  136  140 1   
   142  136  141 1   
   143  142  143 1   
   144  142  147 1   
   145  143  144 1   
   146  143  146 1   
   147  143  148 1   
   148  144  145 2   
   149  144  152 1   
   150  146  149 1   
   151  146  150 1   
   152  146  151 1   
   153  152  153 1   
   154  152  161 1   
   155  153  154 1   
   156  153  156 1   
   157  153  162 1   
   158  154  155 2   
   159  154  167 1   
   160  156  157 1   
   161  156  163 1   
   162  156  164 1   
   163  157  158 1   
   164  157  165 1   
   165  157  166 1   
   166  158  159 1   
   167  158  160 1   
   168  167  168 1   
   169  167  172 1   
   170  168  169 1   
   171  168  170 1   
   172  168  171 1   
   173  174  175 1   
   174  174  176 1   
@<TRIPOS>SUBSTRUCTURE
     1 MOL         1 TEMP              0 ****  ****    0 ROOT
