@<TRIPOS>MOLECULE
MOL
  175   173     1     0     0
SMALL
resp


@<TRIPOS>ATOM
      1 C1          0.5730   -4.3700    5.1590 c3        1 MOL     -0.317927
      2 C2          0.7380   -3.6480    3.7800 c         1 MOL      0.757877
      3 O1         -0.1190   -3.7500    2.9440 o         1 MOL     -0.599450
      4 H1         -0.4220   -4.8110    5.2200 hc        1 MOL      0.072179
      5 H2          1.3240   -5.1550    5.2510 hc        1 MOL      0.072179
      6 H3          0.6990   -3.6480    5.9650 hc        1 MOL      0.072179
      7 N1          1.8710   -2.9790    3.5540 n         1 MOL     -0.586548
      8 C3          2.3490   -2.3420    2.3250 c3        1 MOL      0.060121
      9 C4          2.9930   -3.5040    1.5180 c         1 MOL      0.484491
     10 O2          4.0800   -4.0210    1.8280 o         1 MOL     -0.515332
     11 C5          3.2490   -1.1910    2.7870 c3        1 MOL     -0.205423
     12 C6          3.9930   -0.4290    1.7130 c         1 MOL      0.802778
     13 O3          4.8480    0.3840    2.1100 o         1 MOL     -0.752976
     14 O4          3.6460   -0.4210    0.5350 o         1 MOL     -0.752976
     15 H4          2.4950   -2.8900    4.3520 hn        1 MOL      0.298851
     16 H5          1.5230   -1.9110    1.7650 h1        1 MOL      0.083162
     17 H6          4.0140   -1.5530    3.4830 hc        1 MOL      0.060380
     18 H7          2.6660   -0.3880    3.2390 hc        1 MOL      0.060380
     19 N2          2.3510   -3.8620    0.3670 n         1 MOL     -0.318781
     20 C7          2.6400   -5.0620   -0.3450 c3        1 MOL      0.218002
     21 C8          3.9070   -5.0040   -1.2830 c         1 MOL      0.353159
     22 O5          4.6310   -6.0280   -1.3850 o         1 MOL     -0.566360
     23 C9          1.4770   -5.5450   -1.1880 c3        1 MOL     -0.337264
     24 H8          1.5040   -3.3640    0.1010 hn        1 MOL      0.273020
     25 H9          2.9740   -5.8310    0.3530 h1        1 MOL      0.035838
     26 H10         1.8130   -6.4350   -1.7250 hc        1 MOL      0.087087
     27 H11         0.6790   -5.9490   -0.5680 hc        1 MOL      0.087087
     28 H12         1.2270   -4.8950   -2.0190 hc        1 MOL      0.087087
     29 N3          4.1460   -3.9170   -1.9050 n         1 MOL     -0.258977
     30 C10         5.4040   -3.6010   -2.4640 c3        1 MOL      0.236023
     31 C11         6.4800   -3.1680   -1.3700 c         1 MOL      0.424571
     32 O6          7.6860   -3.3510   -1.6180 o         1 MOL     -0.562940
     33 C12         5.2510   -2.6280   -3.6220 c3        1 MOL     -0.552225
     34 C13         4.5230   -1.3050   -3.2980 c         1 MOL      0.981039
     35 O7          4.2140   -1.0890   -2.1600 o         1 MOL     -0.776344
     36 O8          4.1700   -0.5390   -4.2450 o         1 MOL     -0.776344
     37 H13         3.3870   -3.2570   -1.8390 hn        1 MOL      0.257509
     38 H14         5.8770   -4.5450   -2.7760 h1        1 MOL      0.046329
     39 H15         4.6630   -3.1240   -4.4010 hc        1 MOL      0.109470
     40 H16         6.2620   -2.2860   -3.8500 hc        1 MOL      0.109470
     41 N4          5.9920   -2.6780   -0.2040 n         1 MOL      0.028042
     42 C14         6.8400   -1.9870    0.7830 c3        1 MOL     -0.336723
     43 C15         7.3840   -0.6390    0.3860 c         1 MOL      0.537923
     44 O9          8.3090   -0.1570    1.0560 o         1 MOL     -0.591626
     45 H17         4.9830   -2.7190   -0.1240 hn        1 MOL     -0.104624
     46 H18         7.7430   -2.6010    0.8870 h1        1 MOL      0.148326
     47 H19         6.2690   -1.9530    1.7020 h1        1 MOL      0.148326
     48 N5          6.7060    0.0400   -0.5000 n         1 MOL     -0.189116
     49 C16         7.1860    1.3040   -1.1070 c3        1 MOL     -0.162888
     50 C17         7.2320    2.5060   -0.1210 c         1 MOL      0.443957
     51 O10         7.7980    3.5770   -0.3630 o         1 MOL     -0.564365
     52 C18         6.3300    1.7280   -2.3560 c3        1 MOL     -0.095195
     53 C19         5.0620    2.5610   -1.9840 c         1 MOL      0.496920
     54 N6          5.1530    3.8400   -2.0370 n         1 MOL     -0.621443
     55 O11         3.9980    2.0620   -1.7150 o         1 MOL     -0.539889
     56 H20         6.0280   -0.4840   -1.0360 hn        1 MOL      0.228100
     57 H21         8.2200    1.0270   -1.3190 h1        1 MOL      0.118142
     58 H22         6.0430    0.8770   -2.9650 hc        1 MOL      0.063117
     59 H23         6.9530    2.3220   -3.0270 hc        1 MOL      0.063117
     60 H24         6.0340    4.2380   -2.3300 hn        1 MOL      0.322909
     61 H25         4.3270    4.3420   -1.7330 hn        1 MOL      0.322909
     62 N7          6.5050    2.4000    1.0270 n         1 MOL     -0.119642
     63 C20         6.3290    3.4770    2.0120 c3        1 MOL     -0.189326
     64 C21         4.9130    4.1090    2.0780 c         1 MOL      0.596487
     65 O12         4.8160    5.0670    2.8500 o         1 MOL     -0.611313
     66 H26         6.1110    1.5250    1.3250 hn        1 MOL      0.275551
     67 H27         7.0280    4.2550    1.7010 h1        1 MOL      0.093153
     68 H28         6.5230    3.1860    3.0380 h1        1 MOL      0.093153
     69 N8          3.8980    3.6080    1.4120 n         1 MOL     -0.119280
     70 C22         2.5570    4.1340    1.5370 c3        1 MOL     -0.190465
     71 C23         1.5050    3.0740    1.2610 c         1 MOL      0.644914
     72 O13         1.6410    2.1880    0.4410 o         1 MOL     -0.553244
     73 C24         2.2580    5.2940    0.5230 c3        1 MOL      0.278400
     74 C25         2.8530    6.7400    0.8440 c3        1 MOL     -0.375591
     75 O14         2.6940    4.9590   -0.7490 oh        1 MOL     -0.556312
     76 H29         4.0680    2.9660    0.6470 hn        1 MOL      0.079760
     77 H30         2.3430    4.4840    2.5480 h1        1 MOL      0.110635
     78 H31         1.1830    5.4190    0.4410 h1        1 MOL      0.033722
     79 H32         2.8370    5.7560   -1.2550 ho        1 MOL      0.376905
     80 H33         2.5460    7.4480    0.0720 hc        1 MOL      0.099897
     81 H34         2.3660    7.1090    1.7460 hc        1 MOL      0.099897
     82 H35         3.9420    6.7970    0.8410 hc        1 MOL      0.099897
     83 N9          0.3550    3.1920    1.8860 n         1 MOL     -0.519162
     84 C26        -0.8350    2.3100    1.7580 c3        1 MOL      0.050809
     85 C27        -1.8270    2.8810    0.7390 c         1 MOL      0.440779
     86 O15        -2.3010    3.9550    1.0330 o         1 MOL     -0.586633
     87 C28        -1.4510    2.0560    3.1520 c3        1 MOL      0.220577
     88 C29        -0.4120    1.2450    4.0370 c3        1 MOL     -0.012229
     89 C30        -2.8290    1.3190    3.1370 c3        1 MOL     -0.029328
     90 C31        -0.8360    1.1820    5.5210 c3        1 MOL     -0.150593
     91 H36         0.2680    3.9490    2.5480 hn        1 MOL      0.271657
     92 H37        -0.4040    1.4390    1.2540 h1        1 MOL      0.001759
     93 H38        -1.6790    2.9920    3.6710 hc        1 MOL     -0.030899
     94 H39         0.4650    1.8780    4.0880 hc        1 MOL      0.019300
     95 H40        -0.2750    0.2170    3.6850 hc        1 MOL      0.019300
     96 H41        -3.5630    1.8550    2.5220 hc        1 MOL     -0.009660
     97 H42        -2.6100    0.3200    2.7760 hc        1 MOL     -0.009660
     98 H43        -3.2690    1.3260    4.1350 hc        1 MOL     -0.009660
     99 H44        -1.8120    0.7010    5.6620 hc        1 MOL      0.024472
    100 H45        -0.0260    0.6790    6.0630 hc        1 MOL      0.024472
    101 H46        -0.9340    2.1740    5.9580 hc        1 MOL      0.024472
    102 N10        -2.2200    2.1420   -0.2640 n         1 MOL     -0.274831
    103 C32        -3.3550    2.3970   -1.1370 c3        1 MOL      0.208419
    104 C33        -4.6440    1.7090   -0.4620 c         1 MOL      0.246424
    105 O16        -4.4290    0.7900    0.2860 o         1 MOL     -0.198331
    106 C34        -2.9950    1.8790   -2.5730 c3        1 MOL     -0.195950
    107 C35        -3.8820    2.6320   -3.6120 c         1 MOL      0.716413
    108 O17        -4.8940    3.2440   -3.2570 o         1 MOL     -0.706843
    109 O18        -3.5880    2.4730   -4.8170 o         1 MOL     -0.706843
    110 H47        -1.7240    1.2570   -0.2990 hn        1 MOL      0.275698
    111 H48        -3.5000    3.4600   -1.3380 h1        1 MOL      0.022681
    112 H49        -3.2990    0.8360   -2.5740 hc        1 MOL     -0.004782
    113 H50        -1.9520    2.0800   -2.8010 hc        1 MOL     -0.004782
    114 N11        -5.8930    1.9900   -0.8680 n         1 MOL     -0.555377
    115 C36        -7.0880    1.3600   -0.3100 c3        1 MOL      0.409641
    116 C37        -7.0690   -0.1910   -0.3860 c         1 MOL      0.302535
    117 O19        -7.4210   -0.7930    0.5950 o         1 MOL     -0.453683
    118 C38        -8.4130    1.9780   -0.8980 c3        1 MOL     -0.118197
    119 C39        -9.7210    1.4100   -0.2940 ca        1 MOL      0.015558
    120 C40        -9.9840    1.5120    1.1140 ca        1 MOL     -0.155929
    121 C41       -10.5910    0.6010   -1.0840 ca        1 MOL     -0.155929
    122 C42       -11.0330    0.7380    1.7290 ca        1 MOL     -0.103657
    123 C43       -11.6960   -0.0080   -0.5000 ca        1 MOL     -0.103657
    124 C44       -11.9010    0.0050    0.9290 ca        1 MOL     -0.122637
    125 H51        -5.8700    2.6250   -1.6470 hn        1 MOL      0.284127
    126 H52        -7.0550    1.6050    0.7600 h1        1 MOL      0.005714
    127 H53        -8.4540    1.9470   -1.9860 hc        1 MOL      0.048060
    128 H54        -8.2930    3.0480   -0.7270 hc        1 MOL      0.048060
    129 H55        -9.3030    2.0910    1.7230 ha        1 MOL      0.114703
    130 H56       -10.3360    0.4340   -2.1220 ha        1 MOL      0.114703
    131 H57       -11.1210    0.6560    2.7960 ha        1 MOL      0.107818
    132 H58       -12.3380   -0.5940   -1.1330 ha        1 MOL      0.107818
    133 H59       -12.6900   -0.5850    1.3830 ha        1 MOL      0.103590
    134 N12        -6.6430   -0.7790   -1.5410 n         1 MOL     -0.064874
    135 C45        -6.5880   -2.2320   -1.6870 c3        1 MOL     -0.013849
    136 C46        -5.6040   -2.8670   -0.7490 c         1 MOL      0.274685
    137 O20        -5.8060   -4.0010   -0.3230 o         1 MOL     -0.483749
    138 C47        -6.2740   -2.4530   -3.1260 c3        1 MOL     -0.014191
    139 C48        -6.7900   -1.2260   -3.8220 c3        1 MOL     -0.176508
    140 C49        -6.3110   -0.1970   -2.8250 c3        1 MOL     -0.133552
    141 H60        -7.5830   -2.5920   -1.4190 h1        1 MOL      0.090205
    142 H61        -5.2200   -2.5870   -3.3890 hc        1 MOL      0.039930
    143 H62        -6.8290   -3.2890   -3.5400 hc        1 MOL      0.039930
    144 H63        -6.2780   -1.0030   -4.7620 hc        1 MOL      0.063891
    145 H64        -7.8720   -1.2130   -3.9620 hc        1 MOL      0.063891
    146 H65        -5.2220   -0.2080   -2.8890 h1        1 MOL      0.145917
    147 H66        -6.7690    0.7420   -3.1350 h1        1 MOL      0.145917
    148 N13        -4.5870   -2.1000   -0.2190 n         1 MOL     -0.095450
    149 C50        -3.6730   -2.6790    0.7770 c3        1 MOL      0.015302
    150 C51        -4.1650   -2.5520    2.2450 c         1 MOL      0.419143
    151 O21        -4.0790   -3.5460    2.9460 o         1 MOL     -0.561424
    152 C52        -2.3000   -1.8890    0.6600 c3        1 MOL      0.059052
    153 C53        -1.6320   -2.0460   -0.7290 c3        1 MOL     -0.277520
    154 C54        -0.3080   -1.3290   -0.7190 c         1 MOL      0.810511
    155 O22        -0.3330   -0.1000   -0.7030 o         1 MOL     -0.788516
    156 O23         0.8040   -1.8930   -0.9030 o         1 MOL     -0.788516
    157 H67        -4.4020   -1.1460   -0.4880 hn        1 MOL      0.083478
    158 H68        -3.5840   -3.7360    0.5420 h1        1 MOL      0.083525
    159 H69        -1.6040   -2.3150    1.3910 hc        1 MOL      0.017285
    160 H70        -2.4800   -0.8440    0.9150 hc        1 MOL      0.017285
    161 H71        -2.2440   -1.5630   -1.4980 hc        1 MOL      0.060508
    162 H72        -1.3700   -3.0810   -0.9240 hc        1 MOL      0.060508
    163 N14        -4.8260   -1.4710    2.4990 n         1 MOL     -0.003924
    164 C55        -5.6920   -1.2000    3.6710 c3        1 MOL     -0.210589
    165 H73        -5.8910   -2.1330    4.1990 h1        1 MOL      0.084625
    166 H74        -5.1900   -0.5040    4.3420 h1        1 MOL      0.084625
    167 H75        -6.6340   -0.7660    3.3360 h1        1 MOL      0.084625
    168 H76        -4.8480   -0.7900    1.7540 hn        1 MOL     -0.009947
    169 Ca1         2.1170    0.2800   -1.3380 Ca        1 MOL      1.713484
    170 O24         1.3630   -0.2370   -3.7850 oh        1 MOL     -0.780986
    171 H77         0.8260    0.5030   -4.0720 ho        1 MOL      0.395608
    172 H78         1.0880   -0.9640   -4.3410 ho        1 MOL      0.395608
    173 O25         0.5810    2.3380   -2.3300 oh        1 MOL     -0.780986
    174 H79        -0.3540    2.3400   -2.1230 ho        1 MOL      0.395608
    175 H80         0.7660    3.2230   -2.6590 ho        1 MOL      0.395608
@<TRIPOS>BOND
     1    1    2 1   
     2    1    4 1   
     3    1    5 1   
     4    1    6 1   
     5    2    3 2   
     6    2    7 1   
     7    7    8 1   
     8    7   15 1   
     9    8    9 1   
    10    8   11 1   
    11    8   16 1   
    12    9   10 2   
    13    9   19 1   
    14   11   12 1   
    15   11   17 1   
    16   11   18 1   
    17   12   13 1   
    18   12   14 1   
    19   19   20 1   
    20   19   24 1   
    21   20   21 1   
    22   20   23 1   
    23   20   25 1   
    24   21   22 2   
    25   21   29 1   
    26   23   26 1   
    27   23   27 1   
    28   23   28 1   
    29   29   30 1   
    30   29   37 1   
    31   30   31 1   
    32   30   33 1   
    33   30   38 1   
    34   31   32 2   
    35   31   41 1   
    36   33   34 1   
    37   33   39 1   
    38   33   40 1   
    39   34   35 1   
    40   34   36 1   
    41   41   42 1   
    42   41   45 1   
    43   42   43 1   
    44   42   46 1   
    45   42   47 1   
    46   43   44 2   
    47   43   48 1   
    48   48   49 1   
    49   48   56 1   
    50   49   50 1   
    51   49   52 1   
    52   49   57 1   
    53   50   51 2   
    54   50   62 1   
    55   52   53 1   
    56   52   58 1   
    57   52   59 1   
    58   53   54 1   
    59   53   55 2   
    60   54   60 1   
    61   54   61 1   
    62   62   63 1   
    63   62   66 1   
    64   63   64 1   
    65   63   67 1   
    66   63   68 1   
    67   64   65 2   
    68   64   69 1   
    69   69   70 1   
    70   69   76 1   
    71   70   71 1   
    72   70   73 1   
    73   70   77 1   
    74   71   72 2   
    75   71   83 1   
    76   73   74 1   
    77   73   75 1   
    78   73   78 1   
    79   74   80 1   
    80   74   81 1   
    81   74   82 1   
    82   75   79 1   
    83   83   84 1   
    84   83   91 1   
    85   84   85 1   
    86   84   87 1   
    87   84   92 1   
    88   85   86 2   
    89   85  102 1   
    90   87   88 1   
    91   87   89 1   
    92   87   93 1   
    93   88   90 1   
    94   88   94 1   
    95   88   95 1   
    96   89   96 1   
    97   89   97 1   
    98   89   98 1   
    99   90   99 1   
   100   90  100 1   
   101   90  101 1   
   102  102  103 1   
   103  102  110 1   
   104  103  104 1   
   105  103  106 1   
   106  103  111 1   
   107  104  105 2   
   108  104  114 1   
   109  106  107 1   
   110  106  112 1   
   111  106  113 1   
   112  107  108 1   
   113  107  109 1   
   114  114  115 1   
   115  114  125 1   
   116  115  116 1   
   117  115  118 1   
   118  115  126 1   
   119  116  117 2   
   120  116  134 1   
   121  118  119 1   
   122  118  127 1   
   123  118  128 1   
   124  119  120 ar  
   125  119  121 ar  
   126  120  122 ar  
   127  120  129 1   
   128  121  123 ar  
   129  121  130 1   
   130  122  124 ar  
   131  122  131 1   
   132  123  124 ar  
   133  123  132 1   
   134  124  133 1   
   135  134  135 1   
   136  134  140 1   
   137  135  136 1   
   138  135  138 1   
   139  135  141 1   
   140  136  137 2   
   141  136  148 1   
   142  138  139 1   
   143  138  142 1   
   144  138  143 1   
   145  139  140 1   
   146  139  144 1   
   147  139  145 1   
   148  140  146 1   
   149  140  147 1   
   150  148  149 1   
   151  148  157 1   
   152  149  150 1   
   153  149  152 1   
   154  149  158 1   
   155  150  151 2   
   156  150  163 1   
   157  152  153 1   
   158  152  159 1   
   159  152  160 1   
   160  153  154 1   
   161  153  161 1   
   162  153  162 1   
   163  154  155 1   
   164  154  156 1   
   165  163  164 1   
   166  163  168 1   
   167  164  165 1   
   168  164  166 1   
   169  164  167 1   
   170  170  171 1   
   171  170  172 1   
   172  173  174 1   
   173  173  175 1   
@<TRIPOS>SUBSTRUCTURE
     1 MOL         1 TEMP              0 ****  ****    0 ROOT
