@<TRIPOS>MOLECULE
MOL
  186   183     1     0     0
SMALL
resp


@<TRIPOS>ATOM
      1 C1          0.3740   -2.0840    6.4140 c3        1 MOL     -0.383691
      2 C2          0.7900   -2.1740    4.8960 c         1 MOL      0.865414
      3 O1          0.0520   -2.5710    4.0020 o         1 MOL     -0.652097
      4 H1          1.0800   -2.6540    7.0180 hc        1 MOL      0.091783
      5 H2          0.3810   -1.0420    6.7320 hc        1 MOL      0.091783
      6 H3         -0.6270   -2.4960    6.5410 hc        1 MOL      0.091783
      7 N1          1.9720   -1.7760    4.5010 n         1 MOL     -0.791954
      8 C3          2.4470   -1.6330    3.0840 c3        1 MOL      0.561435
      9 C4          2.8880   -3.0230    2.5860 c         1 MOL      0.485067
     10 O2          3.6180   -3.7280    3.3160 o         1 MOL     -0.608230
     11 C5          3.5470   -0.5860    2.9370 c3        1 MOL     -0.355818
     12 C6          4.2850   -0.5520    1.6210 c         1 MOL      0.738675
     13 O3          3.7690   -1.0470    0.6160 o         1 MOL     -0.627586
     14 O4          5.4300   -0.0390    1.5780 o         1 MOL     -0.627586
     15 H4          2.4590   -1.2660    5.2300 hn        1 MOL      0.314141
     16 H5          1.6010   -1.3490    2.4680 h1        1 MOL     -0.077672
     17 H6          4.2570   -0.8080    3.7330 hc        1 MOL      0.053827
     18 H7          3.0030    0.3270    3.1310 hc        1 MOL      0.053827
     19 N2          2.4210   -3.4830    1.4050 n         1 MOL      0.001623
     20 C7          2.3250   -4.8630    0.9200 c3        1 MOL     -0.030706
     21 C8          3.3690   -5.1340   -0.2250 c         1 MOL      0.365451
     22 O5          4.1920   -6.0390   -0.1810 o         1 MOL     -0.557191
     23 C9          0.8390   -5.2410    0.6440 c3        1 MOL      0.191346
     24 C10        -0.0420   -5.4020    1.9320 c3        1 MOL      0.190128
     25 C11         0.7560   -6.5480   -0.1350 c3        1 MOL     -0.308466
     26 C12         0.5350   -6.3160    3.0350 c3        1 MOL     -0.308268
     27 H8          1.8660   -2.8510    0.8360 hn        1 MOL     -0.041541
     28 H9          2.7420   -5.4650    1.7350 h1        1 MOL      0.041114
     29 H10         0.3530   -4.4140    0.1320 hc        1 MOL      0.003088
     30 H11        -1.0520   -5.6850    1.6340 hc        1 MOL     -0.029435
     31 H12        -0.1030   -4.4110    2.3720 hc        1 MOL     -0.029435
     32 H13         1.1160   -6.3690   -1.1520 hc        1 MOL      0.057631
     33 H14         1.2770   -7.3550    0.3850 hc        1 MOL      0.057631
     34 H15        -0.2730   -6.9010   -0.2250 hc        1 MOL      0.057631
     35 H16         1.3260   -5.7470    3.5370 hc        1 MOL      0.059303
     36 H17        -0.2170   -6.6210    3.7630 hc        1 MOL      0.059303
     37 H18         0.9720   -7.1790    2.5450 hc        1 MOL      0.059303
     38 N3          3.4020   -4.2760   -1.2250 n         1 MOL     -0.144029
     39 C13         4.3690   -4.2890   -2.3350 c3        1 MOL      0.084457
     40 C14         5.6910   -3.5820   -2.0890 c         1 MOL      0.440004
     41 O6          6.6860   -3.8670   -2.7600 o         1 MOL     -0.557455
     42 C15         3.7260   -3.7740   -3.6000 c3        1 MOL     -0.200764
     43 C16         3.2550   -2.3250   -3.5870 c         1 MOL      0.723962
     44 O7          3.3360   -1.7040   -2.4900 o         1 MOL     -0.699362
     45 O8          2.9730   -1.7730   -4.7260 o         1 MOL     -0.699362
     46 H19         2.8680   -3.4270   -1.1460 hn        1 MOL      0.104031
     47 H20         4.6960   -5.3150   -2.5150 h1        1 MOL      0.051674
     48 H21         2.8890   -4.4400   -3.8460 hc        1 MOL      0.044052
     49 H22         4.4440   -3.9850   -4.3950 hc        1 MOL      0.044052
     50 N4          5.7760   -2.6540   -1.1030 n         1 MOL      0.040296
     51 C17         7.1090   -2.3630   -0.4740 c3        1 MOL     -0.414217
     52 C18         7.7730   -1.1370   -1.0660 c         1 MOL      0.650475
     53 O9          8.8740   -1.0900   -1.6860 o         1 MOL     -0.612109
     54 H23         4.9470   -2.3530   -0.6100 hn        1 MOL      0.012817
     55 H24         7.7560   -3.2270   -0.5260 h1        1 MOL      0.151834
     56 H25         6.7840   -2.1500    0.5410 h1        1 MOL      0.151834
     57 N5          7.1820    0.0200   -0.8410 n         1 MOL     -0.335327
     58 C19         7.5440    1.3320   -1.3380 c3        1 MOL      0.117743
     59 C20         7.5780    2.3720   -0.2410 c         1 MOL      0.380609
     60 O10         8.2790    3.4170   -0.4680 o         1 MOL     -0.583426
     61 C21         6.5410    1.7090   -2.4110 c3        1 MOL     -0.267485
     62 C22         5.1230    1.5100   -2.1310 c         1 MOL      0.732094
     63 O11         4.2700    1.5160   -3.0600 o         1 MOL     -0.729107
     64 O12         4.6790    1.5540   -0.9610 o         1 MOL     -0.729107
     65 H26         6.3840   -0.0350   -0.2190 hn        1 MOL      0.084855
     66 H27         8.5250    1.3620   -1.8150 h1        1 MOL      0.082668
     67 H28         6.7920    1.2020   -3.3410 hc        1 MOL      0.086717
     68 H29         6.5030    2.7820   -2.6170 hc        1 MOL      0.086717
     69 N6          6.9790    2.1480    0.9230 n         1 MOL     -0.189634
     70 C23         6.8150    3.1390    1.9620 c3        1 MOL     -0.064760
     71 C24         5.4300    3.8550    1.9380 c         1 MOL      0.491393
     72 O13         5.2710    4.8550    2.6370 o         1 MOL     -0.578891
     73 H30         6.5310    1.2660    1.1160 hn        1 MOL      0.188546
     74 H31         7.6390    3.8560    1.9180 h1        1 MOL      0.067414
     75 H32         6.9140    2.6710    2.9370 h1        1 MOL      0.067414
     76 N7          4.4360    3.3920    1.1150 n         1 MOL     -0.331984
     77 C25         3.1420    4.0150    1.1640 c3        1 MOL      0.024532
     78 C26         2.0420    2.8750    1.3050 c         1 MOL      0.551845
     79 O14         2.1400    1.7610    0.8400 o         1 MOL     -0.666300
     80 C27         2.9450    4.9180   -0.0060 c3        1 MOL     -0.091432
     81 C28         3.7350    6.2410    0.2420 c3        1 MOL     -0.343711
     82 C29         3.2310    7.3320   -0.6520 c         1 MOL      0.725632
     83 N8          3.6320    7.3720   -1.8620 n         1 MOL     -0.812726
     84 O15         2.6880    8.3310   -0.1620 o         1 MOL     -0.613641
     85 H33         4.5410    2.5620    0.5450 hn        1 MOL      0.315670
     86 H34         3.1470    4.5360    2.1260 h1        1 MOL      0.068676
     87 H35         1.8730    5.1220   -0.0320 hc        1 MOL      0.057254
     88 H36         3.2300    4.4620   -0.9560 hc        1 MOL      0.057254
     89 H37         4.8020    6.1400    0.0160 hc        1 MOL      0.134565
     90 H38         3.6600    6.5200    1.2910 hc        1 MOL      0.134565
     91 H39         4.2010    6.6060   -2.1800 hn        1 MOL      0.365311
     92 H40         3.4280    8.1360   -2.4980 hn        1 MOL      0.365311
     93 N9          0.8650    3.3110    1.8640 n         1 MOL     -0.403996
     94 C30        -0.3830    2.4980    1.9430 c3        1 MOL      0.036230
     95 C31        -1.4920    3.0570    0.9950 c         1 MOL      0.385387
     96 O16        -2.1320    4.0800    1.2810 o         1 MOL     -0.557885
     97 C32        -0.8430    2.5050    3.4070 c3        1 MOL      0.252030
     98 C33        -2.1420    1.6570    3.5090 c3        1 MOL     -0.168754
     99 C34         0.1470    2.0320    4.3840 c3        1 MOL     -0.168754
    100 H41         0.9080    4.1550    2.4240 hn        1 MOL      0.249082
    101 H42        -0.1890    1.4430    1.7700 h1        1 MOL      0.162711
    102 H43        -1.1790    3.4750    3.7770 hc        1 MOL     -0.045548
    103 H44        -2.4510    1.5960    4.5550 hc        1 MOL      0.019430
    104 H45        -3.0180    2.0720    3.0120 hc        1 MOL      0.019430
    105 H46        -1.9440    0.6640    3.1140 hc        1 MOL      0.019430
    106 H47         0.8780    2.8030    4.6580 hc        1 MOL      0.019430
    107 H48        -0.3140    1.7480    5.3320 hc        1 MOL      0.019430
    108 H49         0.7000    1.1160    4.1480 hc        1 MOL      0.019430
    109 N10        -1.7540    2.3740   -0.1090 n         1 MOL     -0.233173
    110 C35        -2.8530    2.5530   -1.0820 c3        1 MOL     -0.017150
    111 C36        -4.1360    2.0860   -0.3600 c         1 MOL      0.296529
    112 O17        -4.0120    1.3640    0.6200 o         1 MOL     -0.211267
    113 C37        -2.5690    1.7090   -2.3290 c3        1 MOL     -0.321962
    114 C38        -3.3090    1.9770   -3.5830 c         1 MOL      0.632060
    115 N11        -3.3140    3.2010   -4.0000 n         1 MOL     -0.773332
    116 O18        -3.8590    1.0560   -4.1780 o         1 MOL     -0.505276
    117 H50        -1.0670    1.6320   -0.2050 hn        1 MOL      0.224426
    118 H51        -2.9750    3.6030   -1.3380 h1        1 MOL      0.086940
    119 H52        -2.6790    0.6660   -2.0420 hc        1 MOL      0.136092
    120 H53        -1.5020    1.8160   -2.5250 hc        1 MOL      0.136092
    121 H54        -2.7770    3.8930   -3.4890 hn        1 MOL      0.359905
    122 H55        -3.5920    3.2940   -4.9670 hn        1 MOL      0.359905
    123 N12        -5.3640    2.3970   -0.7810 n         1 MOL     -0.351049
    124 C39        -6.6280    1.9230   -0.2720 c3        1 MOL      0.045721
    125 C40        -6.8230    0.3850   -0.2300 c         1 MOL      0.584812
    126 O19        -7.3050   -0.1520    0.7590 o         1 MOL     -0.509460
    127 C41        -7.7510    2.6210   -1.0860 c3        1 MOL     -0.008000
    128 C42        -9.0620    2.2930   -0.4170 ca        1 MOL     -0.003229
    129 C43        -9.2740    2.5630    0.9510 ca        1 MOL     -0.232783
    130 C44        -9.8590    1.3760   -1.0690 ca        1 MOL     -0.232783
    131 C45       -10.4250    2.1440    1.6290 ca        1 MOL     -0.171201
    132 C46       -10.8810    0.7620   -0.3250 ca        1 MOL     -0.171201
    133 C47       -11.2220    1.1860    0.9970 ca        1 MOL      0.282948
    134 O20       -12.2990    0.6140    1.5930 oh        1 MOL     -0.493529
    135 H56        -5.3850    3.0440   -1.5600 hn        1 MOL      0.226386
    136 H57        -6.6810    2.3040    0.7480 h1        1 MOL      0.064791
    137 H58        -7.7180    2.3270   -2.1370 hc        1 MOL      0.028798
    138 H59        -7.5780    3.6970   -1.0810 hc        1 MOL      0.028798
    139 H60        -8.4460    3.0010    1.4720 ha        1 MOL      0.161289
    140 H61        -9.7790    1.0680   -2.1030 ha        1 MOL      0.161289
    141 H62       -10.5790    2.4640    2.6500 ha        1 MOL      0.125289
    142 H63       -11.5800    0.0890   -0.7990 ha        1 MOL      0.125289
    143 H64       -12.7340   -0.0070    0.9970 ho        1 MOL      0.357785
    144 N13        -6.2130   -0.3100   -1.1800 n         1 MOL     -0.378241
    145 C48        -6.2430   -1.8140   -1.0710 c3        1 MOL     -0.011159
    146 C49        -5.3890   -2.3700    0.0900 c         1 MOL      0.347729
    147 O21        -5.7120   -3.4450    0.5670 o         1 MOL     -0.485630
    148 C50        -5.8160   -2.2980   -2.4330 c3        1 MOL      0.109558
    149 C51        -6.8970   -1.9470   -3.4700 c3        1 MOL     -0.195199
    150 C52        -6.6050   -2.5280   -4.8760 c         1 MOL      0.696082
    151 O22        -6.4650   -1.7210   -5.8240 o         1 MOL     -0.733148
    152 O23        -6.4840   -3.7860   -5.0470 o         1 MOL     -0.733148
    153 H65        -5.9400    0.1280   -2.0440 hn        1 MOL      0.261912
    154 H66        -7.2550   -2.1120   -0.7780 h1        1 MOL      0.075162
    155 H67        -5.8200   -3.3840   -2.4190 hc        1 MOL      0.007648
    156 H68        -4.8050   -1.9940   -2.7330 hc        1 MOL      0.007648
    157 H69        -6.9310   -0.8580   -3.4980 hc        1 MOL     -0.001095
    158 H70        -7.9250   -2.1990   -3.2020 hc        1 MOL     -0.001095
    159 N14        -4.2780   -1.6950    0.3970 n         1 MOL     -0.098643
    160 C53        -3.3590   -2.0720    1.4380 c3        1 MOL     -0.146560
    161 C54        -4.0170   -1.7050    2.7620 c         1 MOL      0.466689
    162 O24        -4.0430   -2.4740    3.7270 o         1 MOL     -0.563852
    163 C55        -2.0460   -1.3430    1.1650 c3        1 MOL     -0.158093
    164 C56        -1.3750   -1.8450   -0.1110 c3        1 MOL     -0.002673
    165 C57         0.0590   -1.2350   -0.3240 c         1 MOL      0.501474
    166 O25         0.9700   -1.9740   -0.7350 o         1 MOL     -0.582747
    167 O26         0.0890    0.0060   -0.2620 o         1 MOL     -0.582747
    168 H71        -4.0300   -0.8460   -0.0960 hn        1 MOL      0.071220
    169 H72        -3.1400   -3.1370    1.4180 h1        1 MOL      0.121912
    170 H73        -1.4250   -1.5820    2.0330 hc        1 MOL      0.090569
    171 H74        -2.0970   -0.2640    1.0680 hc        1 MOL      0.090569
    172 H75        -1.9210   -1.6490   -1.0290 hc        1 MOL      0.012393
    173 H76        -1.2080   -2.9230   -0.0530 hc        1 MOL      0.012393
    174 N15        -4.6790   -0.5390    2.9070 n         1 MOL      0.033475
    175 C58        -5.6100   -0.1430    3.9680 c3        1 MOL     -0.314579
    176 H77        -5.2410   -0.5040    4.9290 h1        1 MOL      0.102620
    177 H78        -5.6900    0.9430    3.9960 h1        1 MOL      0.102620
    178 H79        -6.5910   -0.5760    3.7720 h1        1 MOL      0.102620
    179 H80        -4.6790    0.1150    2.1290 hn        1 MOL      0.011236
    180 Ca1         2.5580    0.3060   -1.2210 Ca        1 MOL      1.729061
    181 O27         1.4420    2.4180   -2.5390 oh        1 MOL     -0.924746
    182 H81         1.8710    3.0770   -3.0900 ho        1 MOL      0.438405
    183 H82         1.2370    1.7020   -3.1440 ho        1 MOL      0.438405
    184 O28         1.2430    0.1950   -3.9800 oh        1 MOL     -0.924746
    185 H83         1.8670   -0.1880   -4.6040 ho        1 MOL      0.438405
    186 H84         0.3860   -0.0740   -4.3010 ho        1 MOL      0.438405
@<TRIPOS>BOND
     1    1    2 1   
     2    1    4 1   
     3    1    5 1   
     4    1    6 1   
     5    2    3 2   
     6    2    7 1   
     7    7    8 1   
     8    7   15 1   
     9    8    9 1   
    10    8   11 1   
    11    8   16 1   
    12    9   10 2   
    13    9   19 1   
    14   11   12 1   
    15   11   17 1   
    16   11   18 1   
    17   12   13 1   
    18   12   14 1   
    19   19   20 1   
    20   19   27 1   
    21   20   21 1   
    22   20   23 1   
    23   20   28 1   
    24   21   22 2   
    25   21   38 1   
    26   23   24 1   
    27   23   25 1   
    28   23   29 1   
    29   24   26 1   
    30   24   30 1   
    31   24   31 1   
    32   25   32 1   
    33   25   33 1   
    34   25   34 1   
    35   26   35 1   
    36   26   36 1   
    37   26   37 1   
    38   38   39 1   
    39   38   46 1   
    40   39   40 1   
    41   39   42 1   
    42   39   47 1   
    43   40   41 2   
    44   40   50 1   
    45   42   43 1   
    46   42   48 1   
    47   42   49 1   
    48   43   44 1   
    49   43   45 1   
    50   50   51 1   
    51   50   54 1   
    52   51   52 1   
    53   51   55 1   
    54   51   56 1   
    55   52   53 2   
    56   52   57 1   
    57   57   58 1   
    58   57   65 1   
    59   58   59 1   
    60   58   61 1   
    61   58   66 1   
    62   59   60 2   
    63   59   69 1   
    64   61   62 1   
    65   61   67 1   
    66   61   68 1   
    67   62   63 1   
    68   62   64 1   
    69   69   70 1   
    70   69   73 1   
    71   70   71 1   
    72   70   74 1   
    73   70   75 1   
    74   71   72 2   
    75   71   76 1   
    76   76   77 1   
    77   76   85 1   
    78   77   78 1   
    79   77   80 1   
    80   77   86 1   
    81   78   79 2   
    82   78   93 1   
    83   80   81 1   
    84   80   87 1   
    85   80   88 1   
    86   81   82 1   
    87   81   89 1   
    88   81   90 1   
    89   82   83 1   
    90   82   84 2   
    91   83   91 1   
    92   83   92 1   
    93   93   94 1   
    94   93  100 1   
    95   94   95 1   
    96   94   97 1   
    97   94  101 1   
    98   95   96 2   
    99   95  109 1   
   100   97   98 1   
   101   97   99 1   
   102   97  102 1   
   103   98  103 1   
   104   98  104 1   
   105   98  105 1   
   106   99  106 1   
   107   99  107 1   
   108   99  108 1   
   109  109  110 1   
   110  109  117 1   
   111  110  111 1   
   112  110  113 1   
   113  110  118 1   
   114  111  112 2   
   115  111  123 1   
   116  113  114 1   
   117  113  119 1   
   118  113  120 1   
   119  114  115 1   
   120  114  116 2   
   121  115  121 1   
   122  115  122 1   
   123  123  124 1   
   124  123  135 1   
   125  124  125 1   
   126  124  127 1   
   127  124  136 1   
   128  125  126 2   
   129  125  144 1   
   130  127  128 1   
   131  127  137 1   
   132  127  138 1   
   133  128  129 ar  
   134  128  130 ar  
   135  129  131 ar  
   136  129  139 1   
   137  130  132 ar  
   138  130  140 1   
   139  131  133 ar  
   140  131  141 1   
   141  132  133 ar  
   142  132  142 1   
   143  133  134 1   
   144  134  143 1   
   145  144  145 1   
   146  144  153 1   
   147  145  146 1   
   148  145  148 1   
   149  145  154 1   
   150  146  147 2   
   151  146  159 1   
   152  148  149 1   
   153  148  155 1   
   154  148  156 1   
   155  149  150 1   
   156  149  157 1   
   157  149  158 1   
   158  150  151 1   
   159  150  152 1   
   160  159  160 1   
   161  159  168 1   
   162  160  161 1   
   163  160  163 1   
   164  160  169 1   
   165  161  162 2   
   166  161  174 1   
   167  163  164 1   
   168  163  170 1   
   169  163  171 1   
   170  164  165 1   
   171  164  172 1   
   172  164  173 1   
   173  165  166 1   
   174  165  167 1   
   175  174  175 1   
   176  174  179 1   
   177  175  176 1   
   178  175  177 1   
   179  175  178 1   
   180  181  182 1   
   181  181  183 1   
   182  184  185 1   
   183  184  186 1   
@<TRIPOS>SUBSTRUCTURE
     1 MOL         1 TEMP              0 ****  ****    0 ROOT
