@<TRIPOS>MOLECULE
MOL
  189   185     1     0     0
SMALL
resp


@<TRIPOS>ATOM
      1 C1          0.1920    2.2000    5.7280 c3        1 MOL     -0.321602
      2 C2         -0.3870    2.3520    4.3160 c         1 MOL      0.661574
      3 O1          0.3300    2.8120    3.4110 o         1 MOL     -0.603977
      4 H1          1.0300    2.8850    5.8510 hc        1 MOL      0.084033
      5 H2         -0.5780    2.4320    6.4640 hc        1 MOL      0.084033
      6 H3          0.5360    1.1760    5.8720 hc        1 MOL      0.084033
      7 N1         -1.6230    1.8620    4.1090 n         1 MOL     -0.534747
      8 C3         -2.2230    1.5420    2.7970 c3        1 MOL      0.245996
      9 C4         -2.6580    2.8730    2.2150 c         1 MOL      0.299490
     10 O2         -3.5720    3.4640    2.7490 o         1 MOL     -0.553715
     11 C5         -3.3680    0.4620    2.8940 c3        1 MOL     -0.147064
     12 C6         -3.9540    0.0300    1.4880 c         1 MOL      0.775158
     13 O3         -3.4720    0.5130    0.4530 o         1 MOL     -0.733516
     14 O4         -4.8780   -0.7590    1.3930 o         1 MOL     -0.733516
     15 H4         -2.2310    1.7230    4.8980 hn        1 MOL      0.297366
     16 H5         -1.4310    1.1110    2.1880 h1        1 MOL     -0.021765
     17 H6         -4.1490    0.7680    3.5910 hc        1 MOL      0.035703
     18 H7         -2.9220   -0.4480    3.3060 hc        1 MOL      0.035703
     19 N2         -2.0800    3.3350    1.1270 n         1 MOL     -0.080530
     20 C7         -2.0950    4.6720    0.6570 c3        1 MOL      0.017143
     21 C8         -3.1460    4.9100   -0.4100 c         1 MOL      0.387042
     22 O5         -3.6610    5.9860   -0.4990 o         1 MOL     -0.590930
     23 C9         -0.7000    5.1250    0.2900 c3        1 MOL     -0.200186
     24 C10        -0.6890    6.6220   -0.2250 c3        1 MOL      0.149591
     25 C11         0.7030    7.2260   -0.3770 c3        1 MOL     -0.252546
     26 C12         1.4820    7.5850    0.9420 c3        1 MOL     -0.167369
     27 N3          0.8260    8.4110    1.9730 n4        1 MOL     -0.220253
     28 H8         -1.3930    2.6940    0.7400 hn        1 MOL      0.227970
     29 H9         -2.2960    5.2680    1.5390 h1        1 MOL      0.073842
     30 H10        -0.2960    4.5380   -0.5290 hc        1 MOL      0.105446
     31 H11        -0.1370    5.0210    1.2230 hc        1 MOL      0.105446
     32 H12        -1.2580    7.1640    0.5300 hc        1 MOL      0.006658
     33 H13        -1.1590    6.7770   -1.2000 hc        1 MOL      0.006658
     34 H14         0.6070    8.1440   -0.9520 hc        1 MOL      0.109402
     35 H15         1.3360    6.6260   -1.0410 hc        1 MOL      0.109402
     36 H16         2.4150    8.1120    0.7720 hx        1 MOL      0.143723
     37 H17         1.8530    6.6860    1.4160 hx        1 MOL      0.143723
     38 H18         0.1280    7.9720    2.5570 hn        1 MOL      0.298350
     39 H19         1.4530    8.9000    2.6010 hn        1 MOL      0.298350
     40 H20         0.3220    9.1520    1.5080 hn        1 MOL      0.298350
     41 N4         -3.5140    3.9280   -1.2000 n         1 MOL     -0.144278
     42 C13        -4.6050    4.0050   -2.2020 c3        1 MOL      0.145041
     43 C14        -5.8900    3.1850   -1.8030 c         1 MOL      0.484513
     44 O6         -6.9250    3.4930   -2.3800 o         1 MOL     -0.538245
     45 C15        -4.0430    3.5410   -3.5540 c3        1 MOL     -0.441548
     46 C16        -3.2300    2.2400   -3.6090 c         1 MOL      0.852324
     47 O7         -2.9760    1.5470   -2.6440 o         1 MOL     -0.704416
     48 O8         -2.8030    1.8710   -4.7130 o         1 MOL     -0.704416
     49 H21        -3.0900    3.0220   -0.9880 hn        1 MOL      0.061086
     50 H22        -5.0040    5.0160   -2.3060 h1        1 MOL      0.080366
     51 H23        -3.3460    4.2560   -3.9770 hc        1 MOL      0.107917
     52 H24        -4.8680    3.3260   -4.2250 hc        1 MOL      0.107917
     53 N5         -5.7900    2.3260   -0.7680 n         1 MOL     -0.381163
     54 C17        -6.9240    1.7720   -0.0260 c3        1 MOL      0.003069
     55 C18        -7.4570    0.4150   -0.4780 c         1 MOL      0.453815
     56 O9         -8.6270    0.0870   -0.3020 o         1 MOL     -0.562403
     57 H25        -4.8500    2.0960   -0.4990 hn        1 MOL      0.250666
     58 H26        -7.7610    2.4290    0.2160 h1        1 MOL      0.083063
     59 H27        -6.5450    1.5730    0.9730 h1        1 MOL      0.083063
     60 N6         -6.6480   -0.3500   -1.2840 n         1 MOL     -0.190169
     61 C19        -7.0020   -1.5680   -1.9590 c3        1 MOL     -0.050112
     62 C20        -7.0990   -2.7630   -1.0280 c         1 MOL      0.504180
     63 O10        -7.5650   -3.7990   -1.4890 o         1 MOL     -0.542290
     64 C21        -5.9530   -1.8720   -3.0310 c3        1 MOL     -0.321392
     65 C22        -4.5220   -1.7280   -2.5600 c         1 MOL      0.715186
     66 O11        -3.6320   -1.4480   -3.4710 o         1 MOL     -0.658268
     67 O12        -4.1240   -1.8470   -1.4000 o         1 MOL     -0.658268
     68 H28        -5.6800   -0.0830   -1.3250 hn        1 MOL      0.167367
     69 H29        -7.9600   -1.4490   -2.4700 h1        1 MOL      0.125268
     70 H30        -5.9900   -1.1880   -3.8840 hc        1 MOL      0.112022
     71 H31        -6.1080   -2.8970   -3.3480 hc        1 MOL      0.112022
     72 N7         -6.7030   -2.6570    0.2810 n         1 MOL     -0.329199
     73 C23        -6.7380   -3.6990    1.3030 c3        1 MOL     -0.108411
     74 C24        -5.4190   -4.3740    1.3920 c         1 MOL      0.551421
     75 O13        -5.3440   -5.4360    2.0300 o         1 MOL     -0.588318
     76 H32        -6.2170   -1.8580    0.6570 hn        1 MOL      0.291866
     77 H33        -7.4410   -4.4900    1.0250 h1        1 MOL      0.095407
     78 H34        -6.9950   -3.3830    2.3150 h1        1 MOL      0.095407
     79 N8         -4.3000   -3.7790    0.8560 n         1 MOL     -0.295073
     80 C25        -2.9520   -4.4220    0.8300 c3        1 MOL     -0.121855
     81 C26        -1.7690   -3.5030    0.9740 c         1 MOL      0.565801
     82 O14        -1.8790   -2.3560    0.5040 o         1 MOL     -0.628137
     83 C27        -2.7290   -5.1000   -0.5200 c3        1 MOL      0.441805
     84 C28        -3.7660   -6.2540   -0.7090 c3        1 MOL     -0.331598
     85 O15        -2.8090   -4.3140   -1.7080 oh        1 MOL     -0.592280
     86 H35        -4.3890   -2.8720    0.4100 hn        1 MOL      0.238617
     87 H36        -2.9080   -5.1150    1.6580 h1        1 MOL      0.082357
     88 H37        -1.8030   -5.6730   -0.4450 h1        1 MOL     -0.018869
     89 H38        -3.2920   -3.5410   -1.4120 ho        1 MOL      0.386751
     90 H39        -3.5650   -6.7670   -1.6540 hc        1 MOL      0.081129
     91 H40        -3.5690   -6.9970    0.0590 hc        1 MOL      0.081129
     92 H41        -4.7840   -5.8610   -0.7020 hc        1 MOL      0.081129
     93 N9         -0.6580   -4.0200    1.4310 n         1 MOL     -0.537778
     94 C29         0.5720   -3.2670    1.6710 c3        1 MOL      0.209138
     95 C30         1.7930   -3.7230    0.8380 c         1 MOL      0.431905
     96 O16         2.0040   -4.9020    0.6630 o         1 MOL     -0.560317
     97 C31         0.9170   -3.3770    3.1940 c3        1 MOL      0.035291
     98 C32        -0.2040   -2.7170    4.1000 c3        1 MOL      0.141912
     99 C33         2.3410   -2.8120    3.5380 c3        1 MOL     -0.050520
    100 C34         0.1310   -2.8780    5.5550 c3        1 MOL     -0.375801
    101 H42        -0.8200   -4.9600    1.7630 hn        1 MOL      0.293332
    102 H43         0.4530   -2.1890    1.5110 h1        1 MOL      0.041567
    103 H44         0.9750   -4.4430    3.3960 hc        1 MOL      0.004564
    104 H45        -1.0830   -3.3610    3.9780 hc        1 MOL      0.000512
    105 H46        -0.4450   -1.6720    3.8990 hc        1 MOL      0.000512
    106 H47         2.5340   -1.7800    3.2410 hc        1 MOL     -0.017465
    107 H48         2.5730   -2.8740    4.6040 hc        1 MOL     -0.017465
    108 H49         3.1590   -3.3030    3.0040 hc        1 MOL     -0.017465
    109 H50         0.9190   -2.2280    5.9230 hc        1 MOL      0.094851
    110 H51        -0.8200   -2.7770    6.0680 hc        1 MOL      0.094851
    111 H52         0.5660   -3.8740    5.6700 hc        1 MOL      0.094851
    112 N10         2.4750   -2.8150    0.1920 n         1 MOL     -0.014080
    113 C35         3.6820   -3.0100   -0.6090 c3        1 MOL      0.019859
    114 C36         4.9550   -2.6030    0.0960 c         1 MOL      0.329101
    115 O17         4.9920   -1.8060    1.0800 o         1 MOL     -0.280917
    116 C37         3.5280   -2.0570   -1.8630 c3        1 MOL      0.010229
    117 C38         2.4830   -2.6070   -2.8830 c3        1 MOL     -0.283149
    118 O18         3.0350   -0.7790   -1.4780 oh        1 MOL     -0.475335
    119 H53         2.2940   -1.8250    0.3050 hn        1 MOL      0.039844
    120 H54         3.7610   -4.0590   -0.8960 h1        1 MOL      0.074806
    121 H55         4.4760   -1.8860   -2.3620 h1        1 MOL      0.077963
    122 H56         2.0900   -0.8850   -1.3600 ho        1 MOL      0.382805
    123 H57         2.8310   -3.5420   -3.3160 hc        1 MOL      0.095218
    124 H58         1.5570   -2.7820   -2.3390 hc        1 MOL      0.095218
    125 H59         2.3490   -1.9180   -3.7240 hc        1 MOL      0.095218
    126 N11         6.0990   -3.0240   -0.4740 n         1 MOL     -0.428002
    127 C39         7.4810   -2.5070   -0.1470 c3        1 MOL      0.009977
    128 C40         7.4470   -0.9810   -0.0330 c         1 MOL      0.158337
    129 O19         7.9540   -0.3960    0.9240 o         1 MOL     -0.469789
    130 C41         8.6170   -2.8360   -1.1640 c3        1 MOL      0.107433
    131 C42         8.8650   -4.3620   -1.3170 c3        1 MOL     -0.401738
    132 O20         8.2750   -2.3560   -2.4610 oh        1 MOL     -0.577482
    133 H60         6.0170   -3.5850   -1.3100 hn        1 MOL      0.305835
    134 H61         7.7410   -2.9970    0.7910 h1        1 MOL      0.159746
    135 H62         9.5400   -2.3680   -0.8190 h1        1 MOL      0.094840
    136 H63         9.1040   -2.4570   -2.9340 ho        1 MOL      0.403182
    137 H64         9.1990   -4.8840   -0.4180 hc        1 MOL      0.127557
    138 H65         7.9780   -4.8510   -1.7240 hc        1 MOL      0.127557
    139 H66         9.6010   -4.5430   -2.0950 hc        1 MOL      0.127557
    140 N12         6.7900   -0.1240   -0.8510 n         1 MOL      0.116567
    141 C43         6.7170    1.4000   -0.7540 c3        1 MOL     -0.004049
    142 C44         5.9100    1.8700    0.4250 c         1 MOL      0.284421
    143 O21         6.3050    2.8350    1.0890 o         1 MOL     -0.498555
    144 C45         5.9750    1.8780   -2.0030 c3        1 MOL     -0.409281
    145 C46         6.4910    1.4150   -3.3830 c3        1 MOL      0.042323
    146 C47         7.9560    1.7030   -3.5620 c3        1 MOL     -0.001499
    147 C48         8.6420    0.9840   -4.7730 c3        1 MOL      0.086094
    148 N13        10.0680    1.2800   -4.8640 n4        1 MOL     -0.234012
    149 H67         6.5370   -0.4810   -1.7590 hn        1 MOL      0.148752
    150 H68         7.7110    1.8270   -0.6850 h1        1 MOL      0.071105
    151 H69         6.0530    2.9630   -1.9680 hc        1 MOL      0.163864
    152 H70         4.9200    1.6120   -1.8840 hc        1 MOL      0.163864
    153 H71         5.8910    1.9650   -4.1040 hc        1 MOL      0.042674
    154 H72         6.2540    0.3610   -3.5240 hc        1 MOL      0.042674
    155 H73         8.4890    1.2910   -2.7090 hc        1 MOL      0.015862
    156 H74         8.1660    2.7610   -3.7560 hc        1 MOL      0.015862
    157 H75         8.0820    1.1800   -5.6850 hx        1 MOL      0.034707
    158 H76         8.5480   -0.0790   -4.5330 hx        1 MOL      0.034707
    159 H77        10.6300    0.8090   -4.1670 hn        1 MOL      0.257891
    160 H78        10.6510    1.0490   -5.6620 hn        1 MOL      0.257891
    161 H79        10.0140    2.2550   -4.5970 hn        1 MOL      0.257891
    162 N14         4.8010    1.2130    0.8010 n         1 MOL      0.034485
    163 C49         3.9120    1.5090    1.9000 c3        1 MOL     -0.082686
    164 C50         4.5440    1.1990    3.2680 c         1 MOL      0.434765
    165 O22         4.5530    2.0950    4.0610 o         1 MOL     -0.524004
    166 C51         2.5420    0.7860    1.6680 c3        1 MOL      0.156917
    167 C52         1.7690    1.6170    0.5670 c3        1 MOL     -0.209412
    168 C53         0.4960    0.9630    0.0470 c         1 MOL      0.807762
    169 O23        -0.4430    1.6920   -0.2900 o         1 MOL     -0.756915
    170 O24         0.4480   -0.2940   -0.1640 o         1 MOL     -0.756915
    171 H80         4.5040    0.5270    0.1120 hn        1 MOL      0.008972
    172 H81         3.7940    2.5900    1.9420 h1        1 MOL      0.085020
    173 H82         2.1000    0.8400    2.6680 hc        1 MOL     -0.000417
    174 H83         2.6960   -0.2450    1.3540 hc        1 MOL     -0.000417
    175 H84         2.4060    1.6950   -0.3240 hc        1 MOL      0.012056
    176 H85         1.5470    2.5880    1.0110 hc        1 MOL      0.012056
    177 N15         5.3060    0.0900    3.3850 n         1 MOL     -0.096696
    178 C54         6.3770   -0.1090    4.4270 c3        1 MOL     -0.342914
    179 H86         7.1250    0.6780    4.3350 h1        1 MOL      0.130128
    180 H87         5.9290   -0.0710    5.4210 h1        1 MOL      0.130128
    181 H88         6.8520   -1.0790    4.2800 h1        1 MOL      0.130128
    182 H89         5.2260   -0.5790    2.6210 hn        1 MOL      0.128198
    183 Ca1        -1.8920   -0.3300   -1.3000 Ca        1 MOL      1.718764
    184 O25        -0.6520    0.4980   -3.6210 oh        1 MOL     -0.852253
    185 H90        -1.4080    0.8890   -4.0580 ho        1 MOL      0.391005
    186 H91         0.0780    0.6230   -4.2350 ho        1 MOL      0.391005
    187 O26        -1.0280   -2.5450   -2.5370 oh        1 MOL     -0.852253
    188 H92        -1.6590   -3.2190   -2.2750 ho        1 MOL      0.391005
    189 H93        -0.9040   -2.6890   -3.4760 ho        1 MOL      0.391005
@<TRIPOS>BOND
     1    1    2 1   
     2    1    4 1   
     3    1    5 1   
     4    1    6 1   
     5    2    3 2   
     6    2    7 1   
     7    7    8 1   
     8    7   15 1   
     9    8    9 1   
    10    8   11 1   
    11    8   16 1   
    12    9   10 2   
    13    9   19 1   
    14   11   12 1   
    15   11   17 1   
    16   11   18 1   
    17   12   13 1   
    18   12   14 1   
    19   19   20 1   
    20   19   28 1   
    21   20   21 1   
    22   20   23 1   
    23   20   29 1   
    24   21   22 2   
    25   21   41 1   
    26   23   24 1   
    27   23   30 1   
    28   23   31 1   
    29   24   25 1   
    30   24   32 1   
    31   24   33 1   
    32   25   26 1   
    33   25   34 1   
    34   25   35 1   
    35   26   27 1   
    36   26   36 1   
    37   26   37 1   
    38   27   38 1   
    39   27   39 1   
    40   27   40 1   
    41   41   42 1   
    42   41   49 1   
    43   42   43 1   
    44   42   45 1   
    45   42   50 1   
    46   43   44 2   
    47   43   53 1   
    48   45   46 1   
    49   45   51 1   
    50   45   52 1   
    51   46   47 1   
    52   46   48 1   
    53   53   54 1   
    54   53   57 1   
    55   54   55 1   
    56   54   58 1   
    57   54   59 1   
    58   55   56 2   
    59   55   60 1   
    60   60   61 1   
    61   60   68 1   
    62   61   62 1   
    63   61   64 1   
    64   61   69 1   
    65   62   63 2   
    66   62   72 1   
    67   64   65 1   
    68   64   70 1   
    69   64   71 1   
    70   65   66 1   
    71   65   67 1   
    72   72   73 1   
    73   72   76 1   
    74   73   74 1   
    75   73   77 1   
    76   73   78 1   
    77   74   75 2   
    78   74   79 1   
    79   79   80 1   
    80   79   86 1   
    81   80   81 1   
    82   80   83 1   
    83   80   87 1   
    84   81   82 2   
    85   81   93 1   
    86   83   84 1   
    87   83   85 1   
    88   83   88 1   
    89   84   90 1   
    90   84   91 1   
    91   84   92 1   
    92   85   89 1   
    93   93   94 1   
    94   93  101 1   
    95   94   95 1   
    96   94   97 1   
    97   94  102 1   
    98   95   96 2   
    99   95  112 1   
   100   97   98 1   
   101   97   99 1   
   102   97  103 1   
   103   98  100 1   
   104   98  104 1   
   105   98  105 1   
   106   99  106 1   
   107   99  107 1   
   108   99  108 1   
   109  100  109 1   
   110  100  110 1   
   111  100  111 1   
   112  112  113 1   
   113  112  119 1   
   114  113  114 1   
   115  113  116 1   
   116  113  120 1   
   117  114  115 2   
   118  114  126 1   
   119  116  117 1   
   120  116  118 1   
   121  116  121 1   
   122  117  123 1   
   123  117  124 1   
   124  117  125 1   
   125  118  122 1   
   126  126  127 1   
   127  126  133 1   
   128  127  128 1   
   129  127  130 1   
   130  127  134 1   
   131  128  129 2   
   132  128  140 1   
   133  130  131 1   
   134  130  132 1   
   135  130  135 1   
   136  131  137 1   
   137  131  138 1   
   138  131  139 1   
   139  132  136 1   
   140  140  141 1   
   141  140  149 1   
   142  141  142 1   
   143  141  144 1   
   144  141  150 1   
   145  142  143 2   
   146  142  162 1   
   147  144  145 1   
   148  144  151 1   
   149  144  152 1   
   150  145  146 1   
   151  145  153 1   
   152  145  154 1   
   153  146  147 1   
   154  146  155 1   
   155  146  156 1   
   156  147  148 1   
   157  147  157 1   
   158  147  158 1   
   159  148  159 1   
   160  148  160 1   
   161  148  161 1   
   162  162  163 1   
   163  162  171 1   
   164  163  164 1   
   165  163  166 1   
   166  163  172 1   
   167  164  165 2   
   168  164  177 1   
   169  166  167 1   
   170  166  173 1   
   171  166  174 1   
   172  167  168 1   
   173  167  175 1   
   174  167  176 1   
   175  168  169 1   
   176  168  170 1   
   177  177  178 1   
   178  177  182 1   
   179  178  179 1   
   180  178  180 1   
   181  178  181 1   
   182  184  185 1   
   183  184  186 1   
   184  187  188 1   
   185  187  189 1   
@<TRIPOS>SUBSTRUCTURE
     1 MOL         1 TEMP              0 ****  ****    0 ROOT
