@<TRIPOS>MOLECULE
MOL
  183   181     1     0     0
SMALL
resp


@<TRIPOS>ATOM
      1 C1         -0.3090    1.5320    6.5320 c3        1 MOL     -0.267722
      2 C2         -0.7990    1.6270    5.0960 c         1 MOL      0.779994
      3 O1         -0.0030    2.1200    4.3010 o         1 MOL     -0.602786
      4 H1         -0.9410    2.1470    7.1720 hc        1 MOL      0.056947
      5 H2         -0.3560    0.4950    6.8650 hc        1 MOL      0.056947
      6 H3          0.7210    1.8870    6.5890 hc        1 MOL      0.056947
      7 N1         -1.9910    1.2380    4.7000 n         1 MOL     -0.698105
      8 C3         -2.5230    1.1460    3.2980 c3        1 MOL      0.392141
      9 C4         -3.0990    2.5800    2.8880 c         1 MOL      0.374252
     10 O2         -4.1860    3.0420    3.3820 o         1 MOL     -0.557118
     11 C5         -3.5750   -0.0100    3.2920 c3        1 MOL     -0.459589
     12 C6         -4.2730   -0.0890    1.9240 c         1 MOL      0.882157
     13 O3         -5.3030   -0.7530    1.7770 o         1 MOL     -0.708370
     14 O4         -3.6780    0.3860    0.9170 o         1 MOL     -0.708370
     15 H4         -2.4670    0.6670    5.3950 hn        1 MOL      0.310536
     16 H5         -1.7670    0.7970    2.5940 h1        1 MOL     -0.005286
     17 H6         -4.3310    0.1660    4.0610 hc        1 MOL      0.084496
     18 H7         -3.0290   -0.8870    3.6500 hc        1 MOL      0.084496
     19 N2         -2.4500    3.2100    1.9340 n         1 MOL     -0.013950
     20 C7         -2.7260    4.6030    1.6140 c3        1 MOL     -0.216989
     21 C8         -3.9040    4.7790    0.6800 c         1 MOL      0.521109
     22 O5         -4.5650    5.8410    0.6630 o         1 MOL     -0.552403
     23 C9         -1.4220    5.2280    1.0090 c3        1 MOL      0.247719
     24 C10        -0.4160    5.3880    2.1120 c3        1 MOL      0.705792
     25 C11        -1.5630    6.6110    0.2710 c3        1 MOL     -0.410706
     26 C12         1.0060    5.7870    1.8220 c3        1 MOL     -0.390143
     27 H8         -1.7790    2.6760    1.4080 hn        1 MOL      0.022758
     28 H9         -2.9670    5.0260    2.5860 h1        1 MOL      0.082050
     29 H10        -0.9600    4.5650    0.2820 hc        1 MOL     -0.010311
     30 H11        -0.4520    4.4690    2.7080 hc        1 MOL     -0.215576
     31 H12        -0.8180    6.1960    2.7250 hc        1 MOL     -0.215576
     32 H13        -1.9040    6.4950   -0.7610 hc        1 MOL      0.082428
     33 H14        -2.3150    7.2330    0.7640 hc        1 MOL      0.082428
     34 H15        -0.6120    7.1250    0.1580 hc        1 MOL      0.082428
     35 H16         1.5070    4.8490    1.5780 hc        1 MOL      0.065724
     36 H17         1.1070    6.4230    0.9440 hc        1 MOL      0.065724
     37 H18         1.3900    6.2690    2.7260 hc        1 MOL      0.065724
     38 N3         -4.0250    3.8020   -0.2620 n         1 MOL     -0.419550
     39 C13        -5.0040    3.8160   -1.4210 c3        1 MOL      0.125962
     40 C14        -6.2130    2.8560   -1.3630 c         1 MOL      0.409090
     41 O6         -7.2480    3.0360   -1.9890 o         1 MOL     -0.532755
     42 C15        -4.3160    3.8150   -2.7830 c3        1 MOL     -0.195759
     43 C16        -3.4410    2.6270   -3.0450 c         1 MOL      0.721842
     44 O7         -2.6170    2.7540   -4.0160 o         1 MOL     -0.678752
     45 O8         -3.6880    1.5320   -2.4420 o         1 MOL     -0.678752
     46 H19        -3.4220    2.9970   -0.1740 hn        1 MOL      0.250806
     47 H20        -5.5920    4.7260   -1.3010 h1        1 MOL      0.064684
     48 H21        -3.7720    4.7480   -2.7900 hc        1 MOL      0.052306
     49 H22        -5.0560    4.0110   -3.5540 hc        1 MOL      0.052306
     50 N4         -6.1420    1.9760   -0.2980 n         1 MOL     -0.163281
     51 C17        -7.3400    1.2810    0.1850 c3        1 MOL     -0.289587
     52 C18        -7.7710    0.0860   -0.6910 c         1 MOL      0.626483
     53 O9         -8.9540   -0.2060   -0.6630 o         1 MOL     -0.637862
     54 H23        -5.2800    1.8590    0.2110 hn        1 MOL      0.172412
     55 H24        -8.1600    2.0070    0.1610 h1        1 MOL      0.118676
     56 H25        -7.2290    0.9430    1.2120 h1        1 MOL      0.118676
     57 N5         -6.8200   -0.5790   -1.2760 n         1 MOL     -0.313011
     58 C19        -7.0960   -1.9170   -1.9420 c3        1 MOL      0.034987
     59 C20        -7.1190   -3.1110   -0.9250 c         1 MOL      0.410116
     60 O10        -7.2570   -4.2400   -1.3350 o         1 MOL     -0.546886
     61 C21        -6.1000   -2.0700   -3.1620 c3        1 MOL     -0.185418
     62 C22        -4.7260   -1.7730   -2.6010 c         1 MOL      0.800994
     63 O11        -3.9080   -1.3170   -3.3900 o         1 MOL     -0.736823
     64 O12        -4.3870   -2.0780   -1.4250 o         1 MOL     -0.736823
     65 H26        -5.9110   -0.2250   -0.9920 hn        1 MOL      0.129326
     66 H27        -8.1110   -1.9360   -2.3470 h1        1 MOL      0.085375
     67 H28        -6.4030   -1.4390   -4.0000 hc        1 MOL      0.054121
     68 H29        -6.1080   -3.1290   -3.4450 hc        1 MOL      0.054121
     69 N6         -6.8810   -2.8580    0.3350 n         1 MOL     -0.248962
     70 C23        -6.7100   -3.9370    1.3370 c3        1 MOL     -0.050580
     71 C24        -5.2660   -4.6040    1.2930 c         1 MOL      0.456020
     72 O13        -5.1070   -5.7120    1.6560 o         1 MOL     -0.584863
     73 H30        -6.6730   -1.9190    0.6310 hn        1 MOL      0.266121
     74 H31        -7.4880   -4.6760    1.1180 h1        1 MOL      0.063454
     75 H32        -7.0440   -3.5630    2.3020 h1        1 MOL      0.063454
     76 N7         -4.2280   -3.9960    0.7640 n         1 MOL     -0.020699
     77 C25        -2.8040   -4.5110    0.8230 c3        1 MOL     -0.076016
     78 C26        -1.8200   -3.3770    1.0780 c         1 MOL      0.348864
     79 O14        -1.9850   -2.1870    0.7290 o         1 MOL     -0.524135
     80 C27        -2.4520   -5.2420   -0.4600 c3        1 MOL      0.037528
     81 C28        -2.8200   -4.8500   -1.9620 c3        1 MOL     -0.167852
     82 C29        -1.8440   -3.7880   -2.5990 c         1 MOL      0.469093
     83 N8         -1.6650   -3.7970   -3.9160 n         1 MOL     -0.642253
     84 O15        -1.3160   -2.8920   -1.9660 o         1 MOL     -0.489453
     85 H33        -4.4340   -3.0430    0.5000 hn        1 MOL      0.074716
     86 H34        -2.6910   -5.2820    1.5970 h1        1 MOL      0.067690
     87 H35        -2.9700   -6.1870   -0.2950 hc        1 MOL      0.001699
     88 H36        -1.3900   -5.4880   -0.4270 hc        1 MOL      0.001699
     89 H37        -3.8410   -4.4900   -2.0680 hc        1 MOL      0.078849
     90 H38        -2.8040   -5.8110   -2.4810 hc        1 MOL      0.078849
     91 H39        -1.9020   -4.6540   -4.3920 hn        1 MOL      0.324361
     92 H40        -0.9570   -3.1440   -4.1930 hn        1 MOL      0.324361
     93 N9         -0.7150   -3.7940    1.6670 n         1 MOL     -0.144419
     94 C30         0.3690   -2.9350    2.0800 c3        1 MOL      0.010797
     95 C31         1.5340   -3.3330    1.1780 c         1 MOL      0.210374
     96 O16         2.2610   -4.3270    1.3380 o         1 MOL     -0.545412
     97 C32         0.7260   -3.0010    3.5860 c3        1 MOL      0.326424
     98 C33         2.0170   -2.1460    3.8560 c3        1 MOL     -0.299620
     99 C34        -0.4510   -2.6130    4.5260 c3        1 MOL     -0.299620
    100 H41        -0.7690   -4.7050    2.1010 hn        1 MOL      0.213210
    101 H42         0.2160   -1.8880    1.8490 h1        1 MOL      0.185894
    102 H43         0.9190   -4.0440    3.8530 hc        1 MOL     -0.060039
    103 H44         1.8970   -1.0820    3.6600 hc        1 MOL      0.057622
    104 H45         2.2750   -2.2170    4.9090 hc        1 MOL      0.057622
    105 H46         2.8840   -2.4000    3.2380 hc        1 MOL      0.057622
    106 H47        -1.2650   -3.3210    4.3280 hc        1 MOL      0.057622
    107 H48        -0.0890   -2.7610    5.5410 hc        1 MOL      0.057622
    108 H49        -0.8290   -1.6340    4.2420 hc        1 MOL      0.057622
    109 N10         1.6940   -2.5440    0.0650 n         1 MOL      0.127940
    110 C35         2.8680   -2.7980   -0.8530 c3        1 MOL      0.042661
    111 C36         4.1260   -2.1810   -0.3070 c         1 MOL      0.498305
    112 O17         4.1270   -1.4160    0.5890 o         1 MOL     -0.411406
    113 C37         2.6090   -2.4840   -2.3180 c3        1 MOL     -0.245083
    114 C38         2.9000   -1.0050   -2.7350 c         1 MOL      0.528895
    115 N11         1.9870   -0.1360   -2.5150 n         1 MOL     -0.642042
    116 O18         3.9640   -0.8150   -3.3340 o         1 MOL     -0.592915
    117 H50         1.0080   -1.8290   -0.1310 hn        1 MOL     -0.197204
    118 H51         2.9770   -3.8750   -0.8900 h1        1 MOL      0.044718
    119 H52         1.5850   -2.8120   -2.5160 hc        1 MOL      0.093772
    120 H53         3.1000   -3.2180   -2.9620 hc        1 MOL      0.093772
    121 H54         1.1350   -0.3830   -2.0470 hn        1 MOL      0.379359
    122 H55         2.1220    0.7740   -2.9490 hn        1 MOL      0.379359
    123 N12         5.2690   -2.4700   -0.9270 n         1 MOL     -0.540187
    124 C39         6.5980   -1.9990   -0.4800 c3        1 MOL      0.173902
    125 C40         6.7860   -0.4280   -0.5680 c         1 MOL      0.605314
    126 O19         7.3480    0.1800    0.2980 o         1 MOL     -0.493039
    127 C41         7.7240   -2.7120   -1.2690 c3        1 MOL     -0.197186
    128 C42         9.0760   -2.3130   -0.7220 ca        1 MOL      0.096658
    129 C43         9.6030   -2.9230    0.3780 ca        1 MOL     -0.256926
    130 C44         9.8410   -1.3390   -1.3840 ca        1 MOL     -0.256926
    131 C45        10.8670   -2.5110    0.9230 ca        1 MOL     -0.159414
    132 C46        11.0040   -0.8030   -0.7620 ca        1 MOL     -0.159414
    133 C47        11.5730   -1.4310    0.3190 ca        1 MOL      0.268711
    134 O20        12.7570   -0.8760    0.7500 oh        1 MOL     -0.514390
    135 H56         5.2730   -3.1750   -1.6500 hn        1 MOL      0.267360
    136 H57         6.7380   -2.3280    0.5500 h1        1 MOL      0.070174
    137 H58         7.7110   -2.6050   -2.3550 hc        1 MOL      0.078761
    138 H59         7.5450   -3.7680   -1.0420 hc        1 MOL      0.078761
    139 H60         9.1080   -3.8000    0.7520 ha        1 MOL      0.154772
    140 H61         9.4410   -0.9780   -2.3170 ha        1 MOL      0.154772
    141 H62        11.2720   -3.0290    1.7780 ha        1 MOL      0.121359
    142 H63        11.5960   -0.0070   -1.1830 ha        1 MOL      0.121359
    143 H64        12.7770   -0.0540    0.2410 ho        1 MOL      0.368863
    144 N13         6.1320    0.2530   -1.5700 n         1 MOL     -0.531782
    145 C48         5.9140    1.7240   -1.5790 c3        1 MOL      0.104617
    146 C49         5.2440    2.2410   -0.2270 c         1 MOL      0.238643
    147 O21         5.6490    3.2690    0.3380 o         1 MOL     -0.519477
    148 C50         5.3040    2.2160   -2.9270 c3        1 MOL      0.086230
    149 C51         5.5040    3.7200   -3.1940 c3        1 MOL     -0.387803
    150 C52         4.5010    4.2330   -4.2490 c         1 MOL      0.773879
    151 O22         3.3110    4.4170   -3.9980 o         1 MOL     -0.752480
    152 O23         5.0310    4.4880   -5.3580 o         1 MOL     -0.752480
    153 H65         5.5620   -0.2560   -2.2230 hn        1 MOL      0.229394
    154 H66         6.8700    2.2590   -1.5630 h1        1 MOL      0.057160
    155 H67         4.2270    2.0210   -2.9650 hc        1 MOL      0.016769
    156 H68         5.8310    1.6760   -3.7080 hc        1 MOL      0.016769
    157 H69         6.5360    3.8280   -3.5350 hc        1 MOL      0.065437
    158 H70         5.3670    4.3420   -2.3160 hc        1 MOL      0.065437
    159 N14         4.2670    1.5470    0.2570 n         1 MOL      0.045374
    160 C53         3.5150    1.9970    1.4250 c3        1 MOL     -0.263745
    161 C54         4.2280    1.5800    2.6920 c         1 MOL      0.522279
    162 O24         4.1320    2.2860    3.6950 o         1 MOL     -0.572450
    163 C55         2.0600    1.3720    1.3080 c3        1 MOL      0.089862
    164 C56         1.2870    1.9220    0.1250 c3        1 MOL      0.112865
    165 C57         0.0380    1.2180   -0.1980 c         1 MOL      0.671833
    166 O25        -1.0100    1.8550   -0.2890 o         1 MOL     -0.678298
    167 O26        -0.0030   -0.0550   -0.4520 o         1 MOL     -0.678298
    168 H71         3.8470    0.7900   -0.2590 hn        1 MOL      0.296372
    169 H72         3.5490    3.0860    1.4030 h1        1 MOL      0.144829
    170 H73         1.5070    1.6300    2.2020 hc        1 MOL     -0.015152
    171 H74         2.1540    0.2960    1.1760 hc        1 MOL     -0.015152
    172 H75         1.9110    1.9660   -0.7650 hc        1 MOL     -0.046130
    173 H76         1.0650    2.9850    0.2420 hc        1 MOL     -0.046130
    174 N15         5.1060    0.5830    2.6010 n         1 MOL     -0.007007
    175 C58         5.9130    0.0910    3.6390 c3        1 MOL     -0.244977
    176 H77         6.9590    0.3000    3.4150 h1        1 MOL      0.076233
    177 H78         5.6390    0.5780    4.5750 h1        1 MOL      0.076233
    178 H79         5.7700   -0.9850    3.7340 h1        1 MOL      0.076233
    179 H80         5.3710    0.1870    1.7170 hn        1 MOL      0.012294
    180 Ca1        -2.4140   -0.4230   -1.3370 Ca        1 MOL      1.697321
    181 O27        -1.0000    0.4780   -3.3510 oh        1 MOL     -0.906817
    182 H81        -1.4220    1.2770   -3.6690 ho        1 MOL      0.413304
    183 H82        -0.5360    0.1270   -4.1130 ho        1 MOL      0.413304
@<TRIPOS>BOND
     1    1    2 1   
     2    1    4 1   
     3    1    5 1   
     4    1    6 1   
     5    2    3 2   
     6    2    7 1   
     7    7    8 1   
     8    7   15 1   
     9    8    9 1   
    10    8   11 1   
    11    8   16 1   
    12    9   10 2   
    13    9   19 1   
    14   11   12 1   
    15   11   17 1   
    16   11   18 1   
    17   12   13 1   
    18   12   14 1   
    19   19   20 1   
    20   19   27 1   
    21   20   21 1   
    22   20   23 1   
    23   20   28 1   
    24   21   22 2   
    25   21   38 1   
    26   23   24 1   
    27   23   25 1   
    28   23   29 1   
    29   24   26 1   
    30   24   30 1   
    31   24   31 1   
    32   25   32 1   
    33   25   33 1   
    34   25   34 1   
    35   26   35 1   
    36   26   36 1   
    37   26   37 1   
    38   38   39 1   
    39   38   46 1   
    40   39   40 1   
    41   39   42 1   
    42   39   47 1   
    43   40   41 2   
    44   40   50 1   
    45   42   43 1   
    46   42   48 1   
    47   42   49 1   
    48   43   44 1   
    49   43   45 1   
    50   50   51 1   
    51   50   54 1   
    52   51   52 1   
    53   51   55 1   
    54   51   56 1   
    55   52   53 2   
    56   52   57 1   
    57   57   58 1   
    58   57   65 1   
    59   58   59 1   
    60   58   61 1   
    61   58   66 1   
    62   59   60 2   
    63   59   69 1   
    64   61   62 1   
    65   61   67 1   
    66   61   68 1   
    67   62   63 1   
    68   62   64 1   
    69   69   70 1   
    70   69   73 1   
    71   70   71 1   
    72   70   74 1   
    73   70   75 1   
    74   71   72 2   
    75   71   76 1   
    76   76   77 1   
    77   76   85 1   
    78   77   78 1   
    79   77   80 1   
    80   77   86 1   
    81   78   79 2   
    82   78   93 1   
    83   80   81 1   
    84   80   87 1   
    85   80   88 1   
    86   81   82 1   
    87   81   89 1   
    88   81   90 1   
    89   82   83 1   
    90   82   84 2   
    91   83   91 1   
    92   83   92 1   
    93   93   94 1   
    94   93  100 1   
    95   94   95 1   
    96   94   97 1   
    97   94  101 1   
    98   95   96 2   
    99   95  109 1   
   100   97   98 1   
   101   97   99 1   
   102   97  102 1   
   103   98  103 1   
   104   98  104 1   
   105   98  105 1   
   106   99  106 1   
   107   99  107 1   
   108   99  108 1   
   109  109  110 1   
   110  109  117 1   
   111  110  111 1   
   112  110  113 1   
   113  110  118 1   
   114  111  112 2   
   115  111  123 1   
   116  113  114 1   
   117  113  119 1   
   118  113  120 1   
   119  114  115 1   
   120  114  116 2   
   121  115  121 1   
   122  115  122 1   
   123  123  124 1   
   124  123  135 1   
   125  124  125 1   
   126  124  127 1   
   127  124  136 1   
   128  125  126 2   
   129  125  144 1   
   130  127  128 1   
   131  127  137 1   
   132  127  138 1   
   133  128  129 ar  
   134  128  130 ar  
   135  129  131 ar  
   136  129  139 1   
   137  130  132 ar  
   138  130  140 1   
   139  131  133 ar  
   140  131  141 1   
   141  132  133 ar  
   142  132  142 1   
   143  133  134 1   
   144  134  143 1   
   145  144  145 1   
   146  144  153 1   
   147  145  146 1   
   148  145  148 1   
   149  145  154 1   
   150  146  147 2   
   151  146  159 1   
   152  148  149 1   
   153  148  155 1   
   154  148  156 1   
   155  149  150 1   
   156  149  157 1   
   157  149  158 1   
   158  150  151 1   
   159  150  152 1   
   160  159  160 1   
   161  159  168 1   
   162  160  161 1   
   163  160  163 1   
   164  160  169 1   
   165  161  162 2   
   166  161  174 1   
   167  163  164 1   
   168  163  170 1   
   169  163  171 1   
   170  164  165 1   
   171  164  172 1   
   172  164  173 1   
   173  165  166 1   
   174  165  167 1   
   175  174  175 1   
   176  174  179 1   
   177  175  176 1   
   178  175  177 1   
   179  175  178 1   
   180  181  182 1   
   181  181  183 1   
@<TRIPOS>SUBSTRUCTURE
     1 MOL         1 TEMP              0 ****  ****    0 ROOT
