@<TRIPOS>MOLECULE
MOL
  183   181     1     0     0
SMALL
resp


@<TRIPOS>ATOM
      1 C1          0.6670   -2.4240    6.3600 c3        1 MOL     -0.347587
      2 C2          0.9850   -2.4890    4.8480 c         1 MOL      0.777472
      3 O1          0.0700   -2.7850    4.0600 o         1 MOL     -0.585458
      4 H1          1.5690   -2.1550    6.9090 hc        1 MOL      0.072081
      5 H2         -0.1030   -1.6730    6.5380 hc        1 MOL      0.072081
      6 H3          0.3120   -3.3970    6.6990 hc        1 MOL      0.072081
      7 N1          2.2020   -2.1450    4.5020 n         1 MOL     -0.625865
      8 C3          2.5870   -2.1180    3.1150 c3        1 MOL      0.183248
      9 C4          2.6860   -3.5920    2.5380 c         1 MOL      0.539580
     10 O2          3.0620   -4.5210    3.2420 o         1 MOL     -0.582019
     11 C5          3.9910   -1.4660    3.0380 c3        1 MOL     -0.116855
     12 C6          4.5380   -1.1410    1.6070 c         1 MOL      0.653976
     13 O3          5.6660   -0.5740    1.4750 o         1 MOL     -0.670437
     14 O4          3.9450   -1.4340    0.5410 o         1 MOL     -0.670437
     15 H4          2.8190   -1.7530    5.2110 hn        1 MOL      0.324576
     16 H5          1.8040   -1.5640    2.5970 h1        1 MOL      0.032500
     17 H6          4.7030   -2.0010    3.6710 hc        1 MOL      0.024503
     18 H7          3.8730   -0.5030    3.5420 hc        1 MOL      0.024503
     19 N2          2.2310   -3.7070    1.2930 n         1 MOL     -0.323584
     20 C7          2.1300   -5.0860    0.6120 c3        1 MOL     -0.267711
     21 C8          2.9190   -5.1570   -0.7030 c         1 MOL      0.580066
     22 O5          3.0340   -6.2390   -1.3650 o         1 MOL     -0.557348
     23 C9          0.6520   -5.5160    0.3480 c3        1 MOL      0.428414
     24 C10        -0.1770   -5.2810    1.6680 c3        1 MOL      0.237865
     25 C11         0.4710   -6.9290   -0.1090 c3        1 MOL     -0.484830
     26 C12         0.1480   -6.2250    2.8190 c3        1 MOL     -0.339863
     27 H8          1.9860   -2.9160    0.7110 hn        1 MOL      0.329960
     28 H9          2.6770   -5.7930    1.2370 h1        1 MOL      0.132860
     29 H10         0.1620   -4.8860   -0.3910 hc        1 MOL     -0.035014
     30 H11        -1.2440   -5.3960    1.4660 hc        1 MOL     -0.048240
     31 H12         0.0040   -4.2480    1.9470 hc        1 MOL     -0.048240
     32 H13        -0.6070   -6.9810   -0.2310 hc        1 MOL      0.096380
     33 H14         0.8270   -6.9660   -1.1330 hc        1 MOL      0.096380
     34 H15         0.9970   -7.5780    0.5890 hc        1 MOL      0.096380
     35 H16         1.2350   -6.2780    2.8580 hc        1 MOL      0.058499
     36 H17        -0.2430   -5.8590    3.7650 hc        1 MOL      0.058499
     37 H18        -0.3910   -7.1500    2.5810 hc        1 MOL      0.058499
     38 N3          3.5240   -3.9910   -1.0380 n         1 MOL     -0.508945
     39 C13         4.4350   -3.9850   -2.2460 c3        1 MOL      0.047037
     40 C14         5.8460   -3.3120   -2.1120 c         1 MOL      0.405454
     41 O6          6.6830   -3.5430   -3.0550 o         1 MOL     -0.559703
     42 C15         3.7240   -3.3490   -3.4590 c3        1 MOL     -0.109082
     43 C16         3.2770   -1.8790   -3.1510 c         1 MOL      0.730340
     44 O7          2.0800   -1.6900   -2.8760 o         1 MOL     -0.756319
     45 O8          4.0870   -1.0300   -2.8070 o         1 MOL     -0.756319
     46 H19         3.5390   -3.1690   -0.4580 hn        1 MOL      0.308249
     47 H20         4.6230   -5.0220   -2.5250 h1        1 MOL      0.088764
     48 H21         2.9240   -4.0020   -3.7750 hc        1 MOL      0.039490
     49 H22         4.3320   -3.3420   -4.3660 hc        1 MOL      0.039490
     50 N4          6.1530   -2.6120   -1.0400 n         1 MOL     -0.162976
     51 C17         7.4150   -2.0190   -0.6310 c3        1 MOL     -0.292665
     52 C18         7.8560   -0.6380   -1.0730 c         1 MOL      0.587158
     53 O9          8.9610   -0.1460   -0.9460 o         1 MOL     -0.612937
     54 H23         5.4170   -2.3390   -0.4080 hn        1 MOL      0.155060
     55 H24         8.2210   -2.7360   -0.7570 h1        1 MOL      0.132246
     56 H25         7.4170   -1.8350    0.4390 h1        1 MOL      0.132246
     57 N5          6.9390    0.0970   -1.7170 n         1 MOL     -0.348477
     58 C19         7.2080    1.5380   -1.9920 c3        1 MOL      0.052268
     59 C20         7.4110    2.4630   -0.7880 c         1 MOL      0.408851
     60 O10         7.9010    3.6090   -1.0360 o         1 MOL     -0.583732
     61 C21         6.1920    2.0170   -2.9650 c3        1 MOL     -0.274311
     62 C22         4.7080    1.9670   -2.4780 c         1 MOL      0.865676
     63 O11         3.7850    2.1040   -3.3340 o         1 MOL     -0.751112
     64 O12         4.4850    1.8530   -1.2790 o         1 MOL     -0.751112
     65 H26         6.0930   -0.3880   -1.9910 hn        1 MOL      0.256091
     66 H27         8.2160    1.5890   -2.4050 h1        1 MOL      0.088881
     67 H28         6.1990    1.2720   -3.7580 hc        1 MOL      0.062414
     68 H29         6.4730    2.9540   -3.4600 hc        1 MOL      0.062414
     69 N6          6.8730    2.1080    0.3680 n         1 MOL     -0.072211
     70 C23         6.8380    2.9210    1.6290 c3        1 MOL     -0.210183
     71 C24         5.5890    3.8400    1.8020 c         1 MOL      0.623494
     72 O13         5.7010    4.6890    2.6510 o         1 MOL     -0.599644
     73 H30         6.4780    1.1870    0.4620 hn        1 MOL      0.159990
     74 H31         7.6770    3.6160    1.5840 h1        1 MOL      0.088431
     75 H32         6.8740    2.2580    2.4830 h1        1 MOL      0.088431
     76 N7          4.4740    3.5390    1.1210 n         1 MOL     -0.387409
     77 C25         3.1860    4.1500    1.4000 c3        1 MOL      0.168558
     78 C26         2.0600    3.1080    1.2420 c         1 MOL      0.448154
     79 O14         2.3230    2.0150    0.7090 o         1 MOL     -0.585106
     80 C27         2.9690    5.2230    0.3460 c3        1 MOL     -0.045024
     81 C28         3.9030    6.4730    0.4210 c3        1 MOL     -0.253296
     82 C29         3.4980    7.6970   -0.4470 c         1 MOL      0.686488
     83 N8          4.1900    8.0230   -1.5130 n         1 MOL     -0.849808
     84 O15         2.4230    8.2570   -0.3660 o         1 MOL     -0.575076
     85 H33         4.4870    2.7970    0.4370 hn        1 MOL      0.259861
     86 H34         3.1360    4.5330    2.4180 h1        1 MOL      0.025762
     87 H35         1.9600    5.5690    0.5600 hc        1 MOL      0.042921
     88 H36         3.1530    4.7980   -0.6400 hc        1 MOL      0.042921
     89 H37         4.9110    6.1680    0.1560 hc        1 MOL      0.069326
     90 H38         3.8810    6.7950    1.4620 hc        1 MOL      0.069326
     91 H39         4.8730    7.3310   -1.7780 hn        1 MOL      0.381717
     92 H40         3.8250    8.6860   -2.1860 hn        1 MOL      0.381717
     93 N9          0.9220    3.3820    1.8550 n         1 MOL     -0.463007
     94 C30        -0.2900    2.5370    1.8840 c3        1 MOL      0.008317
     95 C31        -1.4040    3.1240    1.0050 c         1 MOL      0.493809
     96 O16        -2.0730    4.1110    1.4420 o         1 MOL     -0.581569
     97 C32        -0.6510    2.2840    3.3790 c3        1 MOL      0.286689
     98 C33        -2.0570    1.6870    3.6980 c3        1 MOL     -0.361425
     99 C34         0.3840    1.4530    4.1010 c3        1 MOL     -0.361425
    100 H41         0.9170    4.2560    2.3620 hn        1 MOL      0.306235
    101 H42        -0.0860    1.5670    1.4270 h1        1 MOL      0.200529
    102 H43        -0.7070    3.2720    3.8340 hc        1 MOL     -0.042003
    103 H44        -2.8940    2.1560    3.1960 hc        1 MOL      0.080601
    104 H45        -1.9310    0.6660    3.3390 hc        1 MOL      0.080601
    105 H46        -2.3040    1.8020    4.7560 hc        1 MOL      0.080601
    106 H47         0.1580    1.6030    5.1540 hc        1 MOL      0.080601
    107 H48         0.2930    0.4220    3.7790 hc        1 MOL      0.080601
    108 H49         1.3730    1.8350    3.8690 hc        1 MOL      0.080601
    109 N10        -1.6370    2.6000   -0.2160 n         1 MOL     -0.420830
    110 C35        -2.8240    3.0220   -0.9900 c3        1 MOL      0.102124
    111 C36        -4.1140    2.3790   -0.3980 c         1 MOL      0.364699
    112 O17        -4.0530    1.5990    0.5530 o         1 MOL     -0.298343
    113 C37        -2.5160    2.6760   -2.4520 c3        1 MOL     -0.201037
    114 C38        -3.0280    1.2920   -2.8120 c         1 MOL      0.548903
    115 N11        -2.5370    0.2410   -2.2000 n         1 MOL     -0.528456
    116 O18        -3.9490    1.1450   -3.5910 o         1 MOL     -0.592899
    117 H50        -1.0480    1.8340   -0.5000 hn        1 MOL      0.307767
    118 H51        -2.8180    4.1090   -0.9110 h1        1 MOL      0.088736
    119 H52        -1.4240    2.6150   -2.5500 hc        1 MOL      0.071133
    120 H53        -2.8920    3.5020   -3.0450 hc        1 MOL      0.071133
    121 H54        -1.6150    0.3990   -1.8110 hn        1 MOL      0.329719
    122 H55        -2.7760   -0.6590   -2.5800 hn        1 MOL      0.329719
    123 N12        -5.2830    2.7350   -0.9430 n         1 MOL     -0.558281
    124 C39        -6.5560    2.2500   -0.3750 c3        1 MOL      0.242204
    125 C40        -6.7220    0.7490   -0.4580 c         1 MOL      0.751140
    126 O19        -7.2770    0.1810    0.4240 o         1 MOL     -0.537867
    127 C41        -7.6940    2.8130   -1.2230 c3        1 MOL     -0.110031
    128 C42        -9.0930    2.5550   -0.7460 ca        1 MOL      0.006668
    129 C43        -9.5660    2.7920    0.5140 ca        1 MOL     -0.184439
    130 C44        -9.9610    1.8190   -1.6300 ca        1 MOL     -0.184439
    131 C45       -10.8780    2.5270    0.9600 ca        1 MOL     -0.241688
    132 C46       -11.2610    1.4320   -1.1820 ca        1 MOL     -0.241688
    133 C47       -11.7030    1.8560    0.0520 ca        1 MOL      0.361010
    134 O20       -12.9620    1.6680    0.4140 oh        1 MOL     -0.514410
    135 H56        -5.4060    3.3980   -1.7000 hn        1 MOL      0.289900
    136 H57        -6.6690    2.5460    0.6740 h1        1 MOL      0.022604
    137 H58        -7.5450    2.4920   -2.2470 hc        1 MOL      0.047719
    138 H59        -7.6490    3.9020   -1.2410 hc        1 MOL      0.047719
    139 H60        -8.9180    3.3050    1.2100 ha        1 MOL      0.133553
    140 H61        -9.6120    1.6670   -2.6410 ha        1 MOL      0.133553
    141 H62       -11.1040    2.7280    1.9970 ha        1 MOL      0.142170
    142 H63       -11.9680    0.9130   -1.8050 ha        1 MOL      0.142170
    143 H64       -13.5170    1.2480   -0.2490 ho        1 MOL      0.361026
    144 N13        -6.1900    0.0650   -1.4640 n         1 MOL     -0.600024
    145 C48        -6.3030   -1.4270   -1.5050 c3        1 MOL     -0.028723
    146 C49        -5.5980   -2.0900   -0.3030 c         1 MOL      0.175119
    147 O21        -6.0280   -3.1130    0.3210 o         1 MOL     -0.496565
    148 C50        -5.6100   -1.8560   -2.7710 c3        1 MOL      0.259973
    149 C51        -5.8480   -3.3730   -3.0220 c3        1 MOL     -0.352845
    150 C52        -4.9600   -3.9790   -4.0680 c         1 MOL      0.743218
    151 O22        -5.4260   -4.4500   -5.1030 o         1 MOL     -0.740586
    152 O23        -3.7180   -3.8630   -3.9270 o         1 MOL     -0.740586
    153 H65        -5.6730    0.5740   -2.1680 hn        1 MOL      0.284089
    154 H66        -7.3040   -1.8680   -1.6090 h1        1 MOL      0.103956
    155 H67        -4.5480   -1.6120   -2.7070 hc        1 MOL     -0.015027
    156 H68        -6.0180   -1.2900   -3.6020 hc        1 MOL     -0.015027
    157 H69        -6.9080   -3.4320   -3.2880 hc        1 MOL      0.045211
    158 H70        -5.7320   -3.8980   -2.0790 hc        1 MOL      0.045211
    159 N14        -4.5090   -1.5140    0.1210 n         1 MOL      0.361860
    160 C53        -3.7240   -1.9950    1.2490 c3        1 MOL     -0.209730
    161 C54        -4.4200   -1.6740    2.6040 c         1 MOL      0.428797
    162 O24        -4.4260   -2.5300    3.4780 o         1 MOL     -0.561102
    163 C55        -2.2840   -1.3260    1.2800 c3        1 MOL      0.054432
    164 C56        -1.4660   -1.8680    0.1080 c3        1 MOL     -0.051638
    165 C57        -0.2280   -1.0260   -0.1120 c         1 MOL      0.822451
    166 O25         0.8900   -1.4520    0.3710 o         1 MOL     -0.853283
    167 O26        -0.2060    0.0940   -0.6510 o         1 MOL     -0.853283
    168 H71        -4.0710   -0.8730   -0.5300 hn        1 MOL     -0.122226
    169 H72        -3.6460   -3.0760    1.1640 h1        1 MOL      0.116134
    170 H73        -1.8740   -1.5800    2.2580 hc        1 MOL      0.033563
    171 H74        -2.3460   -0.2350    1.2690 hc        1 MOL      0.033563
    172 H75        -2.0760   -1.9220   -0.7880 hc        1 MOL     -0.002883
    173 H76        -1.1600   -2.8780    0.3680 hc        1 MOL     -0.002883
    174 N15        -5.1160   -0.5570    2.6790 n         1 MOL      0.089864
    175 C58        -5.8590   -0.0740    3.8410 c3        1 MOL     -0.253712
    176 H77        -5.1600    0.2150    4.6250 h1        1 MOL      0.085098
    177 H78        -6.4610    0.7890    3.5550 h1        1 MOL      0.085098
    178 H79        -6.5110   -0.8660    4.2110 h1        1 MOL      0.085098
    179 H80        -5.1710   -0.1360    1.7610 hn        1 MOL     -0.091587
    180 Ca1         2.6010    0.1160   -0.9970 Ca        1 MOL      1.715921
    181 O27         1.3090    1.5150   -2.6780 oh        1 MOL     -0.837901
    182 H81         2.0530    1.8530   -3.1760 ho        1 MOL      0.404769
    183 H82         0.8080    0.9970   -3.3120 ho        1 MOL      0.404769
@<TRIPOS>BOND
     1    1    2 1   
     2    1    4 1   
     3    1    5 1   
     4    1    6 1   
     5    2    3 2   
     6    2    7 1   
     7    7    8 1   
     8    7   15 1   
     9    8    9 1   
    10    8   11 1   
    11    8   16 1   
    12    9   10 2   
    13    9   19 1   
    14   11   12 1   
    15   11   17 1   
    16   11   18 1   
    17   12   13 1   
    18   12   14 1   
    19   19   20 1   
    20   19   27 1   
    21   20   21 1   
    22   20   23 1   
    23   20   28 1   
    24   21   22 2   
    25   21   38 1   
    26   23   24 1   
    27   23   25 1   
    28   23   29 1   
    29   24   26 1   
    30   24   30 1   
    31   24   31 1   
    32   25   32 1   
    33   25   33 1   
    34   25   34 1   
    35   26   35 1   
    36   26   36 1   
    37   26   37 1   
    38   38   39 1   
    39   38   46 1   
    40   39   40 1   
    41   39   42 1   
    42   39   47 1   
    43   40   41 2   
    44   40   50 1   
    45   42   43 1   
    46   42   48 1   
    47   42   49 1   
    48   43   44 1   
    49   43   45 1   
    50   50   51 1   
    51   50   54 1   
    52   51   52 1   
    53   51   55 1   
    54   51   56 1   
    55   52   53 2   
    56   52   57 1   
    57   57   58 1   
    58   57   65 1   
    59   58   59 1   
    60   58   61 1   
    61   58   66 1   
    62   59   60 2   
    63   59   69 1   
    64   61   62 1   
    65   61   67 1   
    66   61   68 1   
    67   62   63 1   
    68   62   64 1   
    69   69   70 1   
    70   69   73 1   
    71   70   71 1   
    72   70   74 1   
    73   70   75 1   
    74   71   72 2   
    75   71   76 1   
    76   76   77 1   
    77   76   85 1   
    78   77   78 1   
    79   77   80 1   
    80   77   86 1   
    81   78   79 2   
    82   78   93 1   
    83   80   81 1   
    84   80   87 1   
    85   80   88 1   
    86   81   82 1   
    87   81   89 1   
    88   81   90 1   
    89   82   83 1   
    90   82   84 2   
    91   83   91 1   
    92   83   92 1   
    93   93   94 1   
    94   93  100 1   
    95   94   95 1   
    96   94   97 1   
    97   94  101 1   
    98   95   96 2   
    99   95  109 1   
   100   97   98 1   
   101   97   99 1   
   102   97  102 1   
   103   98  103 1   
   104   98  104 1   
   105   98  105 1   
   106   99  106 1   
   107   99  107 1   
   108   99  108 1   
   109  109  110 1   
   110  109  117 1   
   111  110  111 1   
   112  110  113 1   
   113  110  118 1   
   114  111  112 2   
   115  111  123 1   
   116  113  114 1   
   117  113  119 1   
   118  113  120 1   
   119  114  115 1   
   120  114  116 2   
   121  115  121 1   
   122  115  122 1   
   123  123  124 1   
   124  123  135 1   
   125  124  125 1   
   126  124  127 1   
   127  124  136 1   
   128  125  126 2   
   129  125  144 1   
   130  127  128 1   
   131  127  137 1   
   132  127  138 1   
   133  128  129 ar  
   134  128  130 ar  
   135  129  131 ar  
   136  129  139 1   
   137  130  132 ar  
   138  130  140 1   
   139  131  133 ar  
   140  131  141 1   
   141  132  133 ar  
   142  132  142 1   
   143  133  134 1   
   144  134  143 1   
   145  144  145 1   
   146  144  153 1   
   147  145  146 1   
   148  145  148 1   
   149  145  154 1   
   150  146  147 2   
   151  146  159 1   
   152  148  149 1   
   153  148  155 1   
   154  148  156 1   
   155  149  150 1   
   156  149  157 1   
   157  149  158 1   
   158  150  151 1   
   159  150  152 1   
   160  159  160 1   
   161  159  168 1   
   162  160  161 1   
   163  160  163 1   
   164  160  169 1   
   165  161  162 2   
   166  161  174 1   
   167  163  164 1   
   168  163  170 1   
   169  163  171 1   
   170  164  165 1   
   171  164  172 1   
   172  164  173 1   
   173  165  166 1   
   174  165  167 1   
   175  174  175 1   
   176  174  179 1   
   177  175  176 1   
   178  175  177 1   
   179  175  178 1   
   180  181  182 1   
   181  181  183 1   
@<TRIPOS>SUBSTRUCTURE
     1 MOL         1 TEMP              0 ****  ****    0 ROOT
