@<TRIPOS>MOLECULE
MOL
  189   185     1     0     0
SMALL
resp


@<TRIPOS>ATOM
      1 C1         -0.4190    2.0880   -5.5810 c3        1 MOL     -0.371935
      2 C2          0.1400    2.2310   -4.1340 c         1 MOL      0.659239
      3 O1         -0.4150    2.8150   -3.2570 o         1 MOL     -0.606436
      4 H1          0.0900    1.2680   -6.0860 hc        1 MOL      0.099535
      5 H2         -1.4880    1.8800   -5.5400 hc        1 MOL      0.099535
      6 H3         -0.2480    3.0140   -6.1290 hc        1 MOL      0.099535
      7 N1          1.3150    1.5970   -3.9380 n         1 MOL     -0.530973
      8 C3          1.9940    1.4270   -2.6710 c3        1 MOL      0.231448
      9 C4          2.7460    2.7460   -2.1310 c         1 MOL      0.230028
     10 O2          3.8450    3.1630   -2.5040 o         1 MOL     -0.495071
     11 C5          2.8630    0.2330   -2.7600 c3        1 MOL     -0.128330
     12 C6          3.7760    0.0930   -1.4970 c         1 MOL      0.559807
     13 O3          3.2830    0.1790   -0.3570 o         1 MOL     -0.626963
     14 O4          5.0130   -0.1280   -1.7010 o         1 MOL     -0.626963
     15 H4          1.6740    1.0430   -4.6960 hn        1 MOL      0.305942
     16 H5          1.2650    1.0810   -1.9430 h1        1 MOL      0.038474
     17 H6          3.4480    0.2330   -3.6710 hc        1 MOL      0.028045
     18 H7          2.2060   -0.6160   -2.8940 hc        1 MOL      0.028045
     19 N2          2.1560    3.4300   -1.1490 n         1 MOL     -0.026285
     20 C7          2.4260    4.8540   -0.7700 c3        1 MOL     -0.053205
     21 C8          3.1710    4.9730    0.5860 c         1 MOL      0.345048
     22 O5          3.7930    6.0460    0.8070 o         1 MOL     -0.548815
     23 C9          1.1560    5.7310   -0.9120 c3        1 MOL     -0.061123
     24 C10         0.7210    6.0410   -2.3350 c3        1 MOL      0.261232
     25 C11        -0.2390    7.2250   -2.3970 c3        1 MOL     -0.171638
     26 C12        -0.6160    7.5560   -3.8520 c3        1 MOL      0.068269
     27 N3         -1.5560    6.5960   -4.4990 n4        1 MOL     -0.491662
     28 H8          1.2440    3.0480   -0.9550 hn        1 MOL      0.208166
     29 H9          3.1770    5.1980   -1.4700 h1        1 MOL      0.111146
     30 H10         1.2650    6.6700   -0.3680 hc        1 MOL      0.013507
     31 H11         0.3380    5.1400   -0.4920 hc        1 MOL      0.013507
     32 H12         0.2250    5.1560   -2.7460 hc        1 MOL     -0.046882
     33 H13         1.6090    6.1520   -2.9520 hc        1 MOL     -0.046882
     34 H14         0.2470    8.1190   -2.0130 hc        1 MOL      0.067856
     35 H15        -1.1680    7.0720   -1.8470 hc        1 MOL      0.067856
     36 H16         0.2880    7.6880   -4.4370 hx        1 MOL      0.081770
     37 H17        -0.9870    8.5790   -3.8480 hx        1 MOL      0.081770
     38 H18        -2.2380    7.0180   -5.1120 hn        1 MOL      0.363748
     39 H19        -1.1380    5.8440   -5.0120 hn        1 MOL      0.363748
     40 H20        -2.1340    6.1990   -3.7690 hn        1 MOL      0.363748
     41 N4          3.2440    3.9000    1.3410 n         1 MOL     -0.258662
     42 C13         4.3340    3.7700    2.4380 c3        1 MOL      0.084769
     43 C14         5.5610    3.0180    1.9200 c         1 MOL      0.454233
     44 O6          6.5720    3.1310    2.5740 o         1 MOL     -0.527387
     45 C15         3.8530    3.2110    3.7670 c3        1 MOL     -0.320902
     46 C16         3.0050    1.9600    3.6200 c         1 MOL      0.787281
     47 O7          2.8990    1.4320    2.5000 o         1 MOL     -0.727913
     48 O8          2.2280    1.6190    4.5570 o         1 MOL     -0.727913
     49 H21         2.6450    3.1190    1.1430 hn        1 MOL      0.202938
     50 H22         4.7040    4.7800    2.6340 h1        1 MOL      0.096041
     51 H23         3.3300    3.9870    4.3190 hc        1 MOL      0.086792
     52 H24         4.6930    2.9710    4.4140 hc        1 MOL      0.086792
     53 N5          5.5590    2.4260    0.7060 n         1 MOL     -0.193954
     54 C17         6.8000    1.8680    0.1130 c3        1 MOL     -0.364512
     55 C18         7.2520    0.5390    0.6310 c         1 MOL      0.657864
     56 O9          8.4330    0.1830    0.5390 o         1 MOL     -0.615701
     57 H25         4.7060    2.2890    0.1760 hn        1 MOL      0.250003
     58 H26         7.6370    2.5480    0.2750 h1        1 MOL      0.151502
     59 H27         6.5940    1.6710   -0.9440 h1        1 MOL      0.151502
     60 N6          6.3620   -0.2680    1.2200 n         1 MOL     -0.265168
     61 C19         6.7130   -1.5710    1.7350 c3        1 MOL     -0.029314
     62 C20         6.6650   -2.7100    0.6910 c         1 MOL      0.383042
     63 O10         7.0000   -3.8400    1.0110 o         1 MOL     -0.518457
     64 C21         5.7800   -1.8150    2.8820 c3        1 MOL     -0.263258
     65 C22         4.2410   -1.8810    2.5470 c         1 MOL      0.763641
     66 O11         3.4180   -1.4270    3.4000 o         1 MOL     -0.722696
     67 O12         3.7430   -2.3110    1.5050 o         1 MOL     -0.722696
     68 H28         5.4090    0.0130    1.0320 hn        1 MOL      0.126481
     69 H29         7.7670   -1.5390    2.0160 h1        1 MOL      0.135879
     70 H30         5.9530   -1.1680    3.7480 hc        1 MOL      0.083559
     71 H31         5.9920   -2.8230    3.2350 hc        1 MOL      0.083559
     72 N7          6.3160   -2.4090   -0.5780 n         1 MOL     -0.121656
     73 C23         6.2810   -3.4730   -1.6470 c3        1 MOL     -0.346392
     74 C24         5.0720   -4.3770   -1.6160 c         1 MOL      0.615228
     75 O13         5.0830   -5.4690   -2.1960 o         1 MOL     -0.563459
     76 H32         6.1490   -1.4520   -0.8410 hn        1 MOL      0.225701
     77 H33         7.1370   -4.1350   -1.5140 h1        1 MOL      0.140222
     78 H34         6.2550   -2.9020   -2.5790 h1        1 MOL      0.140222
     79 N8          3.9490   -3.9190   -0.9870 n         1 MOL     -0.236393
     80 C25         2.6580   -4.6070   -0.9880 c3        1 MOL     -0.383660
     81 C26         1.4910   -3.6530   -1.0660 c         1 MOL      0.745837
     82 O14         1.5690   -2.5480   -0.5160 o         1 MOL     -0.630507
     83 C27         2.5580   -5.5350    0.2480 c3        1 MOL      0.422537
     84 C28         3.4230   -6.8260    0.2030 c3        1 MOL     -0.440499
     85 O15         2.8840   -4.9190    1.5060 oh        1 MOL     -0.615909
     86 H35         4.0320   -3.0950   -0.4130 hn        1 MOL      0.239774
     87 H36         2.6040   -5.1620   -1.9270 h1        1 MOL      0.137326
     88 H37         1.5810   -6.0090    0.3500 h1        1 MOL      0.037868
     89 H38         3.5520   -4.2420    1.3650 ho        1 MOL      0.421492
     90 H39         4.4710   -6.7190    0.4860 hc        1 MOL      0.114693
     91 H40         2.9220   -7.4770    0.9190 hc        1 MOL      0.114693
     92 H41         3.3280   -7.3990   -0.7220 hc        1 MOL      0.114693
     93 N9          0.3340   -4.1110   -1.6370 n         1 MOL     -0.756556
     94 C29        -0.8650   -3.2640   -1.7840 c3        1 MOL      0.136523
     95 C30        -2.0460   -3.7440   -0.8860 c         1 MOL      0.562063
     96 O16        -2.4940   -4.8760   -0.8620 o         1 MOL     -0.563418
     97 C31        -1.2780   -3.3070   -3.2770 c3        1 MOL      0.302699
     98 C32        -0.1350   -2.9900   -4.2000 c3        1 MOL      0.158115
     99 C33        -2.4020   -2.3180   -3.5850 c3        1 MOL     -0.555728
    100 C34        -0.5160   -2.8430   -5.6980 c3        1 MOL     -0.140976
    101 H42         0.4650   -4.9650   -2.1650 hn        1 MOL      0.347049
    102 H43        -0.5670   -2.2640   -1.4460 h1        1 MOL      0.094809
    103 H44        -1.6240   -4.3270   -3.4210 hc        1 MOL     -0.047119
    104 H45         0.5810   -3.8190   -4.1740 hc        1 MOL     -0.042765
    105 H46         0.3190   -2.0320   -3.9360 hc        1 MOL     -0.042765
    106 H47        -3.1840   -2.3620   -2.8260 hc        1 MOL      0.105022
    107 H48        -1.9400   -1.3260   -3.5500 hc        1 MOL      0.105022
    108 H49        -2.8080   -2.5040   -4.5840 hc        1 MOL      0.105022
    109 H50        -1.0660   -1.9120   -5.7970 hc        1 MOL      0.029618
    110 H51         0.4130   -2.7140   -6.2640 hc        1 MOL      0.029618
    111 H52        -0.9900   -3.7170   -6.1360 hc        1 MOL      0.029618
    112 N10        -2.6040   -2.7630   -0.1570 n         1 MOL     -0.216296
    113 C35        -3.7430   -2.8680    0.7920 c3        1 MOL     -0.016190
    114 C36        -5.0100   -2.4410    0.0640 c         1 MOL      0.333418
    115 O17        -5.0090   -1.8050   -0.9390 o         1 MOL     -0.283571
    116 C37        -3.4830   -2.0140    1.9850 c3        1 MOL      0.036009
    117 C38        -2.4930   -2.5580    3.0140 c3        1 MOL     -0.267814
    118 O18        -3.0730   -0.7420    1.6510 oh        1 MOL     -0.517192
    119 H53        -2.2080   -1.8440   -0.2310 hn        1 MOL      0.139270
    120 H54        -3.8010   -3.8930    1.1680 h1        1 MOL      0.101024
    121 H55        -4.4530   -1.8730    2.4650 h1        1 MOL      0.052002
    122 H56        -2.2250   -0.7200    1.1930 ho        1 MOL      0.387450
    123 H57        -2.6840   -3.5530    3.4190 hc        1 MOL      0.085023
    124 H58        -1.5670   -2.5260    2.4260 hc        1 MOL      0.085023
    125 H59        -2.1350   -1.9560    3.8470 hc        1 MOL      0.085023
    126 N11        -6.1810   -2.9040    0.5560 n         1 MOL     -0.362570
    127 C39        -7.4980   -2.4190    0.1100 c3        1 MOL     -0.049979
    128 C40        -7.5900   -0.8280    0.1970 c         1 MOL      0.452813
    129 O19        -7.8300   -0.1990   -0.7980 o         1 MOL     -0.453838
    130 C41        -8.7200   -3.0740    0.8250 c3        1 MOL      0.357649
    131 C42        -8.9120   -4.5760    0.6790 c3        1 MOL     -0.446551
    132 O20        -8.6540   -2.7890    2.1940 oh        1 MOL     -0.649357
    133 H60        -6.1530   -3.4820    1.3840 hn        1 MOL      0.286667
    134 H61        -7.5780   -2.5290   -0.9740 h1        1 MOL      0.085597
    135 H62        -9.5370   -2.5560    0.3210 h1        1 MOL     -0.000140
    136 H63        -9.5120   -2.9080    2.6190 ho        1 MOL      0.420732
    137 H64        -8.8080   -4.9360   -0.3470 hc        1 MOL      0.123252
    138 H65        -8.1080   -5.0900    1.1890 hc        1 MOL      0.123252
    139 H66        -9.8170   -4.7960    1.2420 hc        1 MOL      0.123252
    140 N12        -6.9650   -0.4010    1.3080 n         1 MOL     -0.329430
    141 C43        -6.7690    1.0320    1.5570 c3        1 MOL     -0.188255
    142 C44        -5.9930    1.6860    0.4710 c         1 MOL      0.396205
    143 O21        -6.2980    2.8200    0.0940 o         1 MOL     -0.553799
    144 C45        -6.0520    1.1820    2.9190 c3        1 MOL      0.034562
    145 C46        -6.0750    2.5650    3.5970 c3        1 MOL     -0.162233
    146 C47        -5.1990    2.5860    4.8860 c3        1 MOL      0.066288
    147 C48        -5.2470    3.9140    5.6340 c3        1 MOL      0.091324
    148 N13        -4.2440    4.0210    6.7570 n4        1 MOL     -0.468696
    149 H67        -6.7190   -1.0290    2.0600 hn        1 MOL      0.228150
    150 H68        -7.7910    1.4180    1.5800 h1        1 MOL      0.146055
    151 H69        -5.0310    0.8740    2.7270 hc        1 MOL      0.049471
    152 H70        -6.4960    0.4830    3.6300 hc        1 MOL      0.049471
    153 H71        -7.1080    2.7890    3.9010 hc        1 MOL      0.060608
    154 H72        -5.7170    3.2840    2.8670 hc        1 MOL      0.060608
    155 H73        -4.1910    2.3420    4.5470 hc        1 MOL      0.011212
    156 H74        -5.5010    1.7260    5.4840 hc        1 MOL      0.011212
    157 H75        -6.2380    4.1610    6.0190 hx        1 MOL      0.069322
    158 H76        -5.0270    4.6800    4.8970 hx        1 MOL      0.069322
    159 H77        -4.3350    3.2340    7.3870 hn        1 MOL      0.357242
    160 H78        -3.2920    4.1000    6.4430 hn        1 MOL      0.357242
    161 H79        -4.4470    4.9250    7.1460 hn        1 MOL      0.357242
    162 N14        -4.9410    1.0950   -0.0610 n         1 MOL      0.225573
    163 C49        -4.0850    1.5280   -1.1470 c3        1 MOL     -0.607524
    164 C50        -4.7880    1.4310   -2.4850 c         1 MOL      0.717948
    165 O22        -4.5730    2.2610   -3.3570 o         1 MOL     -0.606948
    166 C51        -2.6170    1.0100   -1.1720 c3        1 MOL      0.167638
    167 C52        -1.8310    1.6650   -0.0070 c3        1 MOL     -0.246447
    168 C53        -0.6260    0.8760    0.3200 c         1 MOL      0.681903
    169 O23        -0.7260   -0.4110    0.4900 o         1 MOL     -0.733941
    170 O24         0.4600    1.4610    0.5110 o         1 MOL     -0.733941
    171 H80        -4.7060    0.2370    0.4120 hn        1 MOL      0.070019
    172 H81        -3.9410    2.6010   -1.0090 h1        1 MOL      0.155933
    173 H82        -2.1590    1.3110   -2.1160 hc        1 MOL      0.046933
    174 H83        -2.6440   -0.0810   -1.0920 hc        1 MOL      0.046933
    175 H84        -2.4180    1.7200    0.9120 hc        1 MOL      0.070822
    176 H85        -1.5140    2.6760   -0.2950 hc        1 MOL      0.070822
    177 N15        -5.5450    0.3450   -2.8270 n         1 MOL     -0.335235
    178 C54        -6.4520    0.3150   -4.0260 c3        1 MOL     -0.166902
    179 H86        -6.1470   -0.4920   -4.6920 h1        1 MOL      0.086731
    180 H87        -7.4800    0.1490   -3.7010 h1        1 MOL      0.086731
    181 H88        -6.3880    1.2660   -4.5550 h1        1 MOL      0.086731
    182 H89        -5.6910   -0.4250   -2.1850 hn        1 MOL      0.232187
    183 Ca1         1.7690   -0.6140    1.4910 Ca        1 MOL      1.771053
    184 O25         0.1560    0.0610    3.5600 oh        1 MOL     -0.801405
    185 H90         0.6390    0.6810    4.1260 ho        1 MOL      0.378966
    186 H91        -0.7580    0.2900    3.7050 ho        1 MOL      0.378966
    187 O26         1.0490   -3.0150    2.4320 oh        1 MOL     -0.801405
    188 H92         1.7580   -3.6150    2.1780 ho        1 MOL      0.378966
    189 H93         0.6780   -3.4070    3.2190 ho        1 MOL      0.378966
@<TRIPOS>BOND
     1    1    2 1   
     2    1    4 1   
     3    1    5 1   
     4    1    6 1   
     5    2    3 2   
     6    2    7 1   
     7    7    8 1   
     8    7   15 1   
     9    8    9 1   
    10    8   11 1   
    11    8   16 1   
    12    9   10 2   
    13    9   19 1   
    14   11   12 1   
    15   11   17 1   
    16   11   18 1   
    17   12   13 1   
    18   12   14 1   
    19   19   20 1   
    20   19   28 1   
    21   20   21 1   
    22   20   23 1   
    23   20   29 1   
    24   21   22 2   
    25   21   41 1   
    26   23   24 1   
    27   23   30 1   
    28   23   31 1   
    29   24   25 1   
    30   24   32 1   
    31   24   33 1   
    32   25   26 1   
    33   25   34 1   
    34   25   35 1   
    35   26   27 1   
    36   26   36 1   
    37   26   37 1   
    38   27   38 1   
    39   27   39 1   
    40   27   40 1   
    41   41   42 1   
    42   41   49 1   
    43   42   43 1   
    44   42   45 1   
    45   42   50 1   
    46   43   44 2   
    47   43   53 1   
    48   45   46 1   
    49   45   51 1   
    50   45   52 1   
    51   46   47 1   
    52   46   48 1   
    53   53   54 1   
    54   53   57 1   
    55   54   55 1   
    56   54   58 1   
    57   54   59 1   
    58   55   56 2   
    59   55   60 1   
    60   60   61 1   
    61   60   68 1   
    62   61   62 1   
    63   61   64 1   
    64   61   69 1   
    65   62   63 2   
    66   62   72 1   
    67   64   65 1   
    68   64   70 1   
    69   64   71 1   
    70   65   66 1   
    71   65   67 1   
    72   72   73 1   
    73   72   76 1   
    74   73   74 1   
    75   73   77 1   
    76   73   78 1   
    77   74   75 2   
    78   74   79 1   
    79   79   80 1   
    80   79   86 1   
    81   80   81 1   
    82   80   83 1   
    83   80   87 1   
    84   81   82 2   
    85   81   93 1   
    86   83   84 1   
    87   83   85 1   
    88   83   88 1   
    89   84   90 1   
    90   84   91 1   
    91   84   92 1   
    92   85   89 1   
    93   93   94 1   
    94   93  101 1   
    95   94   95 1   
    96   94   97 1   
    97   94  102 1   
    98   95   96 2   
    99   95  112 1   
   100   97   98 1   
   101   97   99 1   
   102   97  103 1   
   103   98  100 1   
   104   98  104 1   
   105   98  105 1   
   106   99  106 1   
   107   99  107 1   
   108   99  108 1   
   109  100  109 1   
   110  100  110 1   
   111  100  111 1   
   112  112  113 1   
   113  112  119 1   
   114  113  114 1   
   115  113  116 1   
   116  113  120 1   
   117  114  115 2   
   118  114  126 1   
   119  116  117 1   
   120  116  118 1   
   121  116  121 1   
   122  117  123 1   
   123  117  124 1   
   124  117  125 1   
   125  118  122 1   
   126  126  127 1   
   127  126  133 1   
   128  127  128 1   
   129  127  130 1   
   130  127  134 1   
   131  128  129 2   
   132  128  140 1   
   133  130  131 1   
   134  130  132 1   
   135  130  135 1   
   136  131  137 1   
   137  131  138 1   
   138  131  139 1   
   139  132  136 1   
   140  140  141 1   
   141  140  149 1   
   142  141  142 1   
   143  141  144 1   
   144  141  150 1   
   145  142  143 2   
   146  142  162 1   
   147  144  145 1   
   148  144  151 1   
   149  144  152 1   
   150  145  146 1   
   151  145  153 1   
   152  145  154 1   
   153  146  147 1   
   154  146  155 1   
   155  146  156 1   
   156  147  148 1   
   157  147  157 1   
   158  147  158 1   
   159  148  159 1   
   160  148  160 1   
   161  148  161 1   
   162  162  163 1   
   163  162  171 1   
   164  163  164 1   
   165  163  166 1   
   166  163  172 1   
   167  164  165 2   
   168  164  177 1   
   169  166  167 1   
   170  166  173 1   
   171  166  174 1   
   172  167  168 1   
   173  167  175 1   
   174  167  176 1   
   175  168  169 1   
   176  168  170 1   
   177  177  178 1   
   178  177  182 1   
   179  178  179 1   
   180  178  180 1   
   181  178  181 1   
   182  184  185 1   
   183  184  186 1   
   184  187  188 1   
   185  187  189 1   
@<TRIPOS>SUBSTRUCTURE
     1 MOL         1 TEMP              0 ****  ****    0 ROOT
