@<TRIPOS>MOLECULE
MOL
  179   176     1     0     0
SMALL
resp


@<TRIPOS>ATOM
      1 C1          0.6330   -4.6400    5.0500 c3        1 MOL     -0.557779
      2 C2          0.5860   -3.9530    3.7520 c         1 MOL      0.777095
      3 O1         -0.2900   -4.3130    2.9520 o         1 MOL     -0.588348
      4 H1          0.8200   -5.7020    4.8910 hc        1 MOL      0.135852
      5 H2          1.4330   -4.2160    5.6570 hc        1 MOL      0.135852
      6 H3         -0.3200   -4.5120    5.5630 hc        1 MOL      0.135852
      7 N1          1.5010   -3.0260    3.5350 n         1 MOL     -0.548696
      8 C3          1.8410   -2.6120    2.1810 c3        1 MOL     -0.215955
      9 C4          2.7240   -3.7650    1.5810 c         1 MOL      0.896777
     10 O2          3.5710   -4.2010    2.2520 o         1 MOL     -0.674012
     11 C5          2.5550   -1.2460    2.2520 c3        1 MOL     -0.143447
     12 C6          2.8910   -0.7270    0.8260 c         1 MOL      0.652610
     13 O3          2.5920   -1.3890   -0.1740 o         1 MOL     -0.683267
     14 O4          3.6750    0.2310    0.7440 o         1 MOL     -0.683267
     15 H4          2.1740   -2.8150    4.2620 hn        1 MOL      0.336436
     16 H5          0.8940   -2.4810    1.6600 h1        1 MOL      0.040612
     17 H6          3.4650   -1.3130    2.8640 hc        1 MOL      0.079117
     18 H7          1.8590   -0.5440    2.7160 hc        1 MOL      0.079117
     19 N2          2.4230   -4.3470    0.4590 n         1 MOL     -0.375428
     20 C7          3.1520   -5.4110   -0.2760 c3        1 MOL      0.049912
     21 C8          3.7330   -5.0110   -1.6680 c         1 MOL      0.576035
     22 O5          3.9660   -5.7840   -2.5440 o         1 MOL     -0.548948
     23 C9          2.1950   -6.6110   -0.4260 c3        1 MOL     -0.034999
     24 C10         1.6990   -7.2490    0.8880 c3        1 MOL      0.009886
     25 C11         2.5810   -8.5110    1.2310 c3        1 MOL     -0.302736
     26 C12         3.7350   -8.0750    2.1610 c3        1 MOL      0.172174
     27 N3          4.9400   -8.9130    2.0700 n4        1 MOL     -0.347479
     28 H8          1.6100   -3.9970   -0.0270 hn        1 MOL      0.273312
     29 H9          4.0170   -5.6750    0.3300 h1        1 MOL      0.003459
     30 H10         2.7260   -7.4110   -0.9320 hc        1 MOL      0.039849
     31 H11         1.3680   -6.3460   -1.0760 hc        1 MOL      0.039849
     32 H12         0.6660   -7.5590    0.7180 hc        1 MOL      0.051480
     33 H13         1.7010   -6.4280    1.6000 hc        1 MOL      0.051480
     34 H14         2.9110   -9.0300    0.3350 hc        1 MOL      0.096182
     35 H15         1.9230   -9.2200    1.7440 hc        1 MOL      0.096182
     36 H16         3.5000   -7.9890    3.2220 hx        1 MOL      0.056514
     37 H17         3.8730   -7.0270    1.8790 hx        1 MOL      0.056514
     38 H18         4.8340   -9.6750    2.7140 hn        1 MOL      0.322378
     39 H19         4.9840   -9.4410    1.2130 hn        1 MOL      0.322378
     40 H20         5.7500   -8.3770    2.3510 hn        1 MOL      0.322378
     41 N4          4.0200   -3.6950   -1.8550 n         1 MOL     -0.416940
     42 C13         4.6340   -3.0820   -3.0080 c3        1 MOL      0.286023
     43 C14         5.8730   -2.1880   -2.5330 c         1 MOL      0.373851
     44 O6          6.7340   -1.9370   -3.3510 o         1 MOL     -0.492046
     45 C15         3.6950   -2.3960   -3.9930 c3        1 MOL     -0.294588
     46 C16         2.9080   -1.2800   -3.2600 c         1 MOL      0.864218
     47 O7          3.3930   -0.1290   -3.0100 o         1 MOL     -0.798414
     48 O8          1.7030   -1.4950   -3.0090 o         1 MOL     -0.798414
     49 H21         3.7230   -3.1230   -1.0660 hn        1 MOL      0.069118
     50 H22         5.1560   -3.8500   -3.5800 h1        1 MOL      0.027346
     51 H23         2.9510   -3.1080   -4.3330 hc        1 MOL      0.080286
     52 H24         4.2740   -1.9720   -4.8210 hc        1 MOL      0.080286
     53 N5          5.8180   -1.6530   -1.3160 n         1 MOL     -0.454837
     54 C17         6.9800   -0.9720   -0.7760 c3        1 MOL     -0.032490
     55 C18         6.9520    0.5320   -0.6480 c         1 MOL      0.435179
     56 O9          7.9130    1.2150   -0.2890 o         1 MOL     -0.581020
     57 H25         4.9460   -1.7810   -0.8120 hn        1 MOL      0.382442
     58 H26         7.8830   -1.2310   -1.3410 h1        1 MOL      0.088709
     59 H27         7.1580   -1.2690    0.2510 h1        1 MOL      0.088709
     60 N6          5.8460    1.1880   -1.0050 n         1 MOL     -0.048139
     61 C19         5.8100    2.6510   -1.1300 c3        1 MOL     -0.294341
     62 C20         5.3700    3.4130    0.1010 c         1 MOL      0.443691
     63 O10         5.4310    4.6520   -0.0070 o         1 MOL     -0.493324
     64 C21         4.9300    2.9950   -2.4110 c3        1 MOL     -0.062890
     65 C22         3.4360    3.0510   -2.0720 c         1 MOL      0.584742
     66 N7          2.7600    3.5450   -3.0340 n         1 MOL     -0.608119
     67 O11         2.8330    2.5100   -1.1220 o         1 MOL     -0.560825
     68 H28         5.0530    0.6080   -1.2250 hn        1 MOL      0.172214
     69 H29         6.8300    3.0000   -1.3130 h1        1 MOL      0.195877
     70 H30         5.0530    2.3040   -3.2330 hc        1 MOL      0.065715
     71 H31         5.3400    3.9310   -2.7950 hc        1 MOL      0.065715
     72 H32         3.2570    4.1310   -3.6930 hn        1 MOL      0.308203
     73 H33         1.7630    3.7070   -2.9210 hn        1 MOL      0.308203
     74 N8          4.9560    2.7760    1.1940 n         1 MOL     -0.167316
     75 C23         4.6040    3.5310    2.4380 c3        1 MOL     -0.296619
     76 C24         3.2360    4.1700    2.3990 c         1 MOL      0.676727
     77 O12         2.9650    5.0120    3.2050 o         1 MOL     -0.572583
     78 H34         4.7230    1.7990    1.0610 hn        1 MOL      0.201393
     79 H35         5.3280    4.2950    2.7310 h1        1 MOL      0.128090
     80 H36         4.6100    2.8240    3.2610 h1        1 MOL      0.128090
     81 N9          2.3180    3.6000    1.6100 n         1 MOL     -0.472566
     82 C25         0.8600    3.8790    1.7380 c3        1 MOL      0.385461
     83 C26         0.0930    2.6060    1.4570 c         1 MOL      0.169988
     84 O13         0.6210    1.6710    0.8370 o         1 MOL     -0.448198
     85 C27         0.5110    4.9610    0.6670 c3        1 MOL      0.040036
     86 C28         1.1610    6.2640    0.7560 ca        1 MOL     -0.059894
     87 C29         2.2910    6.5730   -0.0720 ca        1 MOL     -0.104963
     88 C30         0.6790    7.2740    1.6350 ca        1 MOL     -0.104963
     89 C31         2.9180    7.8050    0.1590 ca        1 MOL     -0.302223
     90 C32         1.3030    8.5180    1.7950 ca        1 MOL     -0.302223
     91 C33         2.4470    8.7810    1.0490 ca        1 MOL      0.431822
     92 O14         3.0550    9.9800    1.0550 oh        1 MOL     -0.520980
     93 H37         2.6390    2.8880    0.9660 hn        1 MOL      0.229885
     94 H38         0.5610    4.2690    2.7030 h1        1 MOL     -0.009826
     95 H39        -0.5760    5.0820    0.7470 hc        1 MOL     -0.021368
     96 H40         0.7600    4.5620   -0.3160 hc        1 MOL     -0.021368
     97 H41         2.7130    5.8130   -0.7170 ha        1 MOL      0.113071
     98 H42        -0.2270    7.0730    2.1880 ha        1 MOL      0.113071
     99 H43         3.8480    8.0330   -0.3320 ha        1 MOL      0.145101
    100 H44         0.9810    9.2960    2.4760 ha        1 MOL      0.145101
    101 H45         2.7000   10.6070    1.6920 ho        1 MOL      0.373095
    102 N10        -1.1840    2.5620    1.8110 n         1 MOL     -0.244645
    103 C34        -2.1080    1.5180    1.4910 c3        1 MOL     -0.021140
    104 C35        -3.3550    2.2750    1.0940 c         1 MOL      0.561001
    105 O15        -3.8550    3.0360    1.8830 o         1 MOL     -0.533755
    106 C36        -2.3400    0.4550    2.6050 c3        1 MOL      0.283352
    107 C37        -2.0300    1.0220    4.0000 c3        1 MOL      0.042009
    108 C38        -1.4680   -0.7560    2.4470 c3        1 MOL     -0.866433
    109 C39        -2.5620    0.1020    5.1250 c3        1 MOL     -0.314800
    110 H46        -1.5390    3.2860    2.4150 hn        1 MOL      0.242505
    111 H47        -1.7680    0.9040    0.6570 h1        1 MOL     -0.185076
    112 H48        -3.4050    0.2440    2.5530 hc        1 MOL     -0.020557
    113 H49        -2.6580    1.9120    3.9880 hc        1 MOL      0.012348
    114 H50        -1.0100    1.3260    4.2260 hc        1 MOL      0.012348
    115 H51        -1.7620   -1.1020    1.4490 hc        1 MOL      0.278862
    116 H52        -0.4660   -0.3590    2.5590 hc        1 MOL      0.278862
    117 H53        -1.7030   -1.5650    3.1340 hc        1 MOL      0.278862
    118 H54        -3.5490   -0.3160    4.9390 hc        1 MOL      0.075460
    119 H55        -1.8020   -0.6200    5.4300 hc        1 MOL      0.075460
    120 H56        -2.6610    0.7390    6.0020 hc        1 MOL      0.075460
    121 N11        -3.9040    1.9570   -0.0620 n         1 MOL     -0.452349
    122 C40        -5.1590    2.4600   -0.5210 c3        1 MOL      0.000400
    123 C41        -6.3510    1.5980    0.0370 c         1 MOL      0.304135
    124 O16        -6.1510    0.4320    0.4410 o         1 MOL     -0.256536
    125 C42        -5.1120    2.6940   -2.0430 c3        1 MOL      0.092944
    126 O17        -5.2970    1.4780   -2.7810 oh        1 MOL     -0.597581
    127 H57        -3.5330    1.1640   -0.5680 hn        1 MOL      0.457352
    128 H58        -5.3130    3.4410   -0.0670 h1        1 MOL      0.044417
    129 H59        -4.1570    3.1740   -2.2730 h1        1 MOL      0.057091
    130 H60        -5.8820    3.4130   -2.3140 h1        1 MOL      0.057091
    131 H61        -4.5180    0.9250   -2.6600 ho        1 MOL      0.398863
    132 N12        -7.5630    2.1550   -0.1660 n         1 MOL     -0.312427
    133 C43        -8.8150    1.5320    0.0550 c3        1 MOL      0.063755
    134 C44        -8.8410    0.0990   -0.5240 c         1 MOL      0.504583
    135 O18        -9.3020   -0.8260    0.1040 o         1 MOL     -0.496364
    136 C45        -9.9670    2.4460   -0.4570 c3        1 MOL     -0.248377
    137 H62        -7.5430    3.0710   -0.5880 hn        1 MOL      0.263360
    138 H63        -9.0020    1.3730    1.1230 h1        1 MOL      0.081076
    139 H64       -10.8550    1.8830   -0.7400 hc        1 MOL      0.080737
    140 H65       -10.2220    3.1790    0.3090 hc        1 MOL      0.080737
    141 H66        -9.7590    3.0170   -1.3580 hc        1 MOL      0.080737
    142 N13        -8.2550   -0.0620   -1.7490 n         1 MOL     -0.398891
    143 C46        -8.0650   -1.2610   -2.4870 c3        1 MOL      0.114929
    144 C47        -7.1500   -2.3630   -1.8300 c         1 MOL      0.287904
    145 O19        -7.6500   -3.5150   -1.6030 o         1 MOL     -0.489370
    146 C48        -7.6360   -0.9190   -3.9280 c3        1 MOL     -0.278252
    147 H67        -7.8570    0.7670   -2.1620 hn        1 MOL      0.248331
    148 H68        -9.0570   -1.7280   -2.4890 h1        1 MOL      0.080003
    149 H69        -7.5470   -1.8400   -4.4980 hc        1 MOL      0.078142
    150 H70        -8.3080   -0.2220   -4.4280 hc        1 MOL      0.078142
    151 H71        -6.6410   -0.4800   -3.8790 hc        1 MOL      0.078142
    152 N14        -5.9710   -1.9500   -1.4290 n         1 MOL     -0.052422
    153 C49        -5.0530   -2.8520   -0.6770 c3        1 MOL     -0.045212
    154 C50        -5.5550   -3.2080    0.7420 c         1 MOL      0.380571
    155 O20        -5.4270   -4.2970    1.2500 o         1 MOL     -0.512888
    156 C51        -3.6620   -2.1920   -0.6350 c3        1 MOL      0.102732
    157 C52        -3.0070   -1.9250   -1.9830 c3        1 MOL     -0.335678
    158 C53        -2.1320   -0.6790   -1.8400 c         1 MOL      0.904474
    159 O21        -0.9060   -0.7220   -1.4010 o         1 MOL     -0.771650
    160 O22        -2.7020    0.3520   -2.0980 o         1 MOL     -0.771650
    161 H72        -5.7450   -0.9830   -1.6170 hn        1 MOL      0.144940
    162 H73        -4.9270   -3.8080   -1.1920 h1        1 MOL      0.092689
    163 H74        -3.0260   -2.7920    0.0060 hc        1 MOL     -0.002753
    164 H75        -3.7260   -1.1820   -0.2040 hc        1 MOL     -0.002753
    165 H76        -3.7860   -1.9380   -2.7410 hc        1 MOL      0.069034
    166 H77        -2.3590   -2.7280   -2.3350 hc        1 MOL      0.069034
    167 N15        -6.2300   -2.2150    1.4120 n         1 MOL      0.061364
    168 C54        -6.7840   -2.3560    2.7650 c3        1 MOL     -0.406199
    169 H78        -7.6600   -3.0040    2.7320 h1        1 MOL      0.138368
    170 H79        -6.0330   -2.7950    3.4220 h1        1 MOL      0.138368
    171 H80        -7.0710   -1.3760    3.1450 h1        1 MOL      0.138368
    172 H81        -6.2170   -1.3210    0.9450 hn        1 MOL     -0.051090
    173 Ca1         1.2570    0.5010   -1.5870 Ca        1 MOL      1.779093
    174 O23        -0.8450    2.2990   -1.4810 oh        1 MOL     -0.886511
    175 H82        -1.4960    1.6810   -1.7980 ho        1 MOL      0.427134
    176 H83        -1.2200    3.1650   -1.6770 ho        1 MOL      0.427134
    177 O24         0.9350    1.3710   -4.0650 oh        1 MOL     -0.886511
    178 H84         0.1350    1.4560   -4.5800 ho        1 MOL      0.427134
    179 H85         1.6320    1.5960   -4.6730 ho        1 MOL      0.427134
@<TRIPOS>BOND
     1    1    2 1   
     2    1    4 1   
     3    1    5 1   
     4    1    6 1   
     5    2    3 2   
     6    2    7 1   
     7    7    8 1   
     8    7   15 1   
     9    8    9 1   
    10    8   11 1   
    11    8   16 1   
    12    9   10 2   
    13    9   19 1   
    14   11   12 1   
    15   11   17 1   
    16   11   18 1   
    17   12   13 1   
    18   12   14 1   
    19   19   20 1   
    20   19   28 1   
    21   20   21 1   
    22   20   23 1   
    23   20   29 1   
    24   21   22 2   
    25   21   41 1   
    26   23   24 1   
    27   23   30 1   
    28   23   31 1   
    29   24   25 1   
    30   24   32 1   
    31   24   33 1   
    32   25   26 1   
    33   25   34 1   
    34   25   35 1   
    35   26   27 1   
    36   26   36 1   
    37   26   37 1   
    38   27   38 1   
    39   27   39 1   
    40   27   40 1   
    41   41   42 1   
    42   41   49 1   
    43   42   43 1   
    44   42   45 1   
    45   42   50 1   
    46   43   44 2   
    47   43   53 1   
    48   45   46 1   
    49   45   51 1   
    50   45   52 1   
    51   46   47 1   
    52   46   48 1   
    53   53   54 1   
    54   53   57 1   
    55   54   55 1   
    56   54   58 1   
    57   54   59 1   
    58   55   56 2   
    59   55   60 1   
    60   60   61 1   
    61   60   68 1   
    62   61   62 1   
    63   61   64 1   
    64   61   69 1   
    65   62   63 2   
    66   62   74 1   
    67   64   65 1   
    68   64   70 1   
    69   64   71 1   
    70   65   66 1   
    71   65   67 2   
    72   66   72 1   
    73   66   73 1   
    74   74   75 1   
    75   74   78 1   
    76   75   76 1   
    77   75   79 1   
    78   75   80 1   
    79   76   77 2   
    80   76   81 1   
    81   81   82 1   
    82   81   93 1   
    83   82   83 1   
    84   82   85 1   
    85   82   94 1   
    86   83   84 2   
    87   83  102 1   
    88   85   86 1   
    89   85   95 1   
    90   85   96 1   
    91   86   87 ar  
    92   86   88 ar  
    93   87   89 ar  
    94   87   97 1   
    95   88   90 ar  
    96   88   98 1   
    97   89   91 ar  
    98   89   99 1   
    99   90   91 ar  
   100   90  100 1   
   101   91   92 1   
   102   92  101 1   
   103  102  103 1   
   104  102  110 1   
   105  103  104 1   
   106  103  106 1   
   107  103  111 1   
   108  104  105 2   
   109  104  121 1   
   110  106  107 1   
   111  106  108 1   
   112  106  112 1   
   113  107  109 1   
   114  107  113 1   
   115  107  114 1   
   116  108  115 1   
   117  108  116 1   
   118  108  117 1   
   119  109  118 1   
   120  109  119 1   
   121  109  120 1   
   122  121  122 1   
   123  121  127 1   
   124  122  123 1   
   125  122  125 1   
   126  122  128 1   
   127  123  124 2   
   128  123  132 1   
   129  125  126 1   
   130  125  129 1   
   131  125  130 1   
   132  126  131 1   
   133  132  133 1   
   134  132  137 1   
   135  133  134 1   
   136  133  136 1   
   137  133  138 1   
   138  134  135 2   
   139  134  142 1   
   140  136  139 1   
   141  136  140 1   
   142  136  141 1   
   143  142  143 1   
   144  142  147 1   
   145  143  144 1   
   146  143  146 1   
   147  143  148 1   
   148  144  145 2   
   149  144  152 1   
   150  146  149 1   
   151  146  150 1   
   152  146  151 1   
   153  152  153 1   
   154  152  161 1   
   155  153  154 1   
   156  153  156 1   
   157  153  162 1   
   158  154  155 2   
   159  154  167 1   
   160  156  157 1   
   161  156  163 1   
   162  156  164 1   
   163  157  158 1   
   164  157  165 1   
   165  157  166 1   
   166  158  159 1   
   167  158  160 1   
   168  167  168 1   
   169  167  172 1   
   170  168  169 1   
   171  168  170 1   
   172  168  171 1   
   173  174  175 1   
   174  174  176 1   
   175  177  178 1   
   176  177  179 1   
@<TRIPOS>SUBSTRUCTURE
     1 MOL         1 TEMP              0 ****  ****    0 ROOT
