@<TRIPOS>MOLECULE
MOL
  175   173     1     0     0
SMALL
resp


@<TRIPOS>ATOM
      1 C1          0.6840    3.8530    5.4870 c3        1 MOL     -0.380641
      2 C2         -0.0170    3.8450    4.1630 c         1 MOL      0.702384
      3 O1          0.5930    4.1620    3.0940 o         1 MOL     -0.580068
      4 H1          0.1210    3.2480    6.1990 hc        1 MOL      0.094141
      5 H2          1.6850    3.4400    5.3720 hc        1 MOL      0.094141
      6 H3          0.7530    4.8770    5.8560 hc        1 MOL      0.094141
      7 N1         -1.2920    3.5490    4.0930 n         1 MOL     -0.575859
      8 C3         -2.0000    3.4030    2.7680 c3        1 MOL      0.005256
      9 C4         -2.1770    4.6810    1.8920 c         1 MOL      0.632410
     10 O2         -2.5660    5.7640    2.4060 o         1 MOL     -0.578533
     11 C5         -3.3520    2.7850    3.1190 c3        1 MOL     -0.287185
     12 C6         -4.0800    2.2580    1.9630 c         1 MOL      0.800300
     13 O3         -3.6070    2.0380    0.8190 o         1 MOL     -0.705800
     14 O4         -5.2720    1.9410    2.2420 o         1 MOL     -0.705800
     15 H4         -1.7870    3.4160    4.9700 hn        1 MOL      0.325274
     16 H5         -1.4870    2.5960    2.2490 h1        1 MOL      0.149433
     17 H6         -3.9970    3.4660    3.6700 hc        1 MOL      0.066704
     18 H7         -3.2300    1.9490    3.7980 hc        1 MOL      0.066704
     19 N2         -2.0910    4.5670    0.5380 n         1 MOL     -0.545290
     20 C7         -2.3370    5.6330   -0.4120 c3        1 MOL      0.334438
     21 C8         -3.4220    5.2940   -1.4820 c         1 MOL      0.418293
     22 O5         -3.7450    6.2270   -2.2440 o         1 MOL     -0.556010
     23 C9         -1.0280    5.9710   -1.1150 c3        1 MOL     -0.237009
     24 H8         -1.8590    3.6240    0.2580 hn        1 MOL      0.300457
     25 H9         -2.6820    6.5070    0.1370 h1        1 MOL      0.005781
     26 H10        -0.2910    5.9690   -0.3180 hc        1 MOL      0.060519
     27 H11        -0.7640    5.1500   -1.7690 hc        1 MOL      0.060519
     28 H12        -1.0040    6.9070   -1.6850 hc        1 MOL      0.060519
     29 N3         -3.9840    4.0630   -1.5020 n         1 MOL     -0.395449
     30 C10        -4.7340    3.5960   -2.6640 c3        1 MOL      0.048160
     31 C11        -5.8710    2.6270   -2.3830 c         1 MOL      0.403027
     32 O6         -6.5570    2.0980   -3.2590 o         1 MOL     -0.547624
     33 C12        -3.8130    2.9290   -3.6230 c3        1 MOL     -0.064508
     34 C13        -2.9500    1.7990   -3.0060 c         1 MOL      0.683567
     35 O7         -3.3680    1.1210   -2.0530 o         1 MOL     -0.695310
     36 O8         -1.8910    1.4310   -3.6120 o         1 MOL     -0.695310
     37 H13        -3.7110    3.3880   -0.8070 hn        1 MOL      0.237376
     38 H14        -5.2100    4.4600   -3.1230 h1        1 MOL      0.082429
     39 H15        -3.0470    3.6010   -4.0120 hc        1 MOL      0.016896
     40 H16        -4.3070    2.5870   -4.5260 hc        1 MOL      0.016896
     41 N4         -6.0360    2.2580   -1.1160 n         1 MOL     -0.228545
     42 C14        -7.2360    1.4750   -0.6850 c3        1 MOL     -0.198751
     43 C15        -7.2710    0.0690   -1.1340 c         1 MOL      0.525944
     44 O9         -8.3820   -0.4450   -1.0830 o         1 MOL     -0.603187
     45 H17        -5.4330    2.6330   -0.3990 hn        1 MOL      0.177705
     46 H18        -8.1450    1.9160   -1.0810 h1        1 MOL      0.115471
     47 H19        -7.4250    1.3450    0.3800 h1        1 MOL      0.115471
     48 N5         -6.2060   -0.5530   -1.6490 n         1 MOL     -0.246775
     49 C16        -6.2940   -1.8790   -2.3400 c3        1 MOL      0.089788
     50 C17        -6.6180   -3.0690   -1.4130 c         1 MOL      0.479815
     51 O10        -7.3160   -3.9970   -1.8450 o         1 MOL     -0.570506
     52 C18        -5.0760   -2.0040   -3.2500 c3        1 MOL     -0.291547
     53 C19        -3.7480   -2.0330   -2.4760 c         1 MOL      0.635243
     54 N6         -2.6430   -2.0980   -3.1570 n         1 MOL     -0.718085
     55 O11        -3.7420   -2.1550   -1.2410 o         1 MOL     -0.434819
     56 H20        -5.3910    0.0260   -1.7770 hn        1 MOL      0.255749
     57 H21        -7.1790   -1.8020   -2.9690 h1        1 MOL      0.070195
     58 H22        -4.9860   -1.1700   -3.9490 hc        1 MOL      0.085010
     59 H23        -5.1390   -2.9690   -3.7470 hc        1 MOL      0.085010
     60 H24        -2.6260   -1.9100   -4.1520 hn        1 MOL      0.361347
     61 H25        -1.7340   -2.2840   -2.7520 hn        1 MOL      0.361347
     62 N7         -6.1930   -2.9990   -0.1530 n         1 MOL     -0.252921
     63 C20        -6.2790   -4.0960    0.8210 c3        1 MOL     -0.026134
     64 C21        -4.9610   -4.7280    1.2800 c         1 MOL      0.409533
     65 O12        -4.9230   -5.7060    1.9960 o         1 MOL     -0.567513
     66 H26        -5.6900   -2.1500    0.0690 hn        1 MOL      0.143686
     67 H27        -6.7660   -4.9750    0.3990 h1        1 MOL      0.075994
     68 H28        -6.9440   -3.8560    1.6590 h1        1 MOL      0.075994
     69 N8         -3.7960   -4.1790    0.9460 n         1 MOL      0.090267
     70 C22        -2.5300   -4.7380    1.2590 c3        1 MOL     -0.484114
     71 C23        -1.5600   -3.5900    1.4170 c         1 MOL      0.626249
     72 O13        -1.6370   -2.5360    0.8280 o         1 MOL     -0.491159
     73 C24        -1.9590   -5.6340    0.1180 c3        1 MOL      0.587747
     74 C25        -2.5810   -7.0070   -0.1420 c3        1 MOL     -0.583334
     75 O14        -2.0360   -4.9510   -1.0990 oh        1 MOL     -0.586234
     76 H29        -3.7400   -3.3430    0.3790 hn        1 MOL     -0.060447
     77 H30        -2.5410   -5.3010    2.2000 h1        1 MOL      0.155659
     78 H31        -0.9200   -5.8720    0.3150 h1        1 MOL     -0.028284
     79 H32        -1.7440   -4.0480   -0.9540 ho        1 MOL      0.320761
     80 H33        -1.9800   -7.5980   -0.8330 hc        1 MOL      0.152845
     81 H34        -2.7940   -7.5110    0.8080 hc        1 MOL      0.152845
     82 H35        -3.5900   -6.7920   -0.4670 hc        1 MOL      0.152845
     83 N9         -0.5180   -3.7800    2.2170 n         1 MOL     -0.516998
     84 C26         0.6850   -2.8730    2.3340 c3        1 MOL     -0.004052
     85 C27         1.6450   -3.0030    1.1980 c         1 MOL      0.572993
     86 O15         2.1770   -4.1100    1.0120 o         1 MOL     -0.635628
     87 C28         1.5480   -2.9800    3.6370 c3        1 MOL      0.237366
     88 C29         0.7260   -2.9130    4.8940 c3        1 MOL      0.115657
     89 C30         2.6170   -1.8540    3.6570 c3        1 MOL     -0.374276
     90 C31         1.3730   -3.3390    6.2360 c3        1 MOL     -0.142849
     91 H36        -0.4110   -4.6790    2.6670 hn        1 MOL      0.298444
     92 H37         0.2730   -1.8610    2.3540 h1        1 MOL      0.024067
     93 H38         1.9740   -3.9790    3.6300 hc        1 MOL     -0.037210
     94 H39        -0.1500   -3.5300    4.6780 hc        1 MOL     -0.044144
     95 H40         0.4270   -1.8740    5.0120 hc        1 MOL     -0.044144
     96 H41         2.1770   -0.8600    3.5930 hc        1 MOL      0.087564
     97 H42         3.1690   -1.9060    4.5940 hc        1 MOL      0.087564
     98 H43         3.4380   -1.9440    2.9410 hc        1 MOL      0.087564
     99 H44         0.6870   -3.2880    7.0760 hc        1 MOL      0.024482
    100 H45         1.6270   -4.4000    6.1540 hc        1 MOL      0.024482
    101 H46         2.2830   -2.7430    6.3460 hc        1 MOL      0.024482
    102 N10         1.8510   -2.0300    0.3820 n         1 MOL     -0.114228
    103 C32         2.6910   -1.9100   -0.8260 c3        1 MOL     -0.143209
    104 C33         4.1340   -1.4010   -0.5940 c         1 MOL      0.722452
    105 O16         4.4270   -0.7460    0.4010 o         1 MOL     -0.504958
    106 C34         1.9200   -1.0840   -1.8770 c3        1 MOL     -0.230852
    107 C35         0.5380   -1.5440   -2.2630 c         1 MOL      0.821962
    108 O17        -0.4440   -1.2030   -1.6240 o         1 MOL     -0.711414
    109 O18         0.4480   -2.2040   -3.3260 o         1 MOL     -0.711414
    110 H47         1.2080   -1.2630    0.5290 hn        1 MOL      0.075687
    111 H48         2.8520   -2.9100   -1.2170 h1        1 MOL      0.094166
    112 H49         2.4550   -1.0340   -2.8220 hc        1 MOL      0.069414
    113 H50         1.8650   -0.0720   -1.4830 hc        1 MOL      0.069414
    114 N11         5.0560   -1.7170   -1.4780 n         1 MOL     -0.855099
    115 C36         6.4700   -1.4710   -1.2550 c3        1 MOL      0.606843
    116 C37         6.8050    0.0230   -1.1590 c         1 MOL      0.219256
    117 O19         7.5300    0.4160   -0.2540 o         1 MOL     -0.482312
    118 C38         7.3170   -2.1660   -2.3440 c3        1 MOL     -0.355032
    119 C39         8.7960   -1.9770   -2.2000 ca        1 MOL      0.189083
    120 C40         9.5450   -2.4430   -1.0580 ca        1 MOL     -0.249972
    121 C41         9.4810   -1.2110   -3.0990 ca        1 MOL     -0.249972
    122 C42        10.9550   -2.1930   -0.8440 ca        1 MOL     -0.034879
    123 C43        10.8420   -1.0650   -3.0330 ca        1 MOL     -0.034879
    124 C44        11.6000   -1.5710   -1.9310 ca        1 MOL     -0.173193
    125 H51         4.9840   -2.4740   -2.1400 hn        1 MOL      0.364034
    126 H52         6.7780   -1.8500   -0.2820 h1        1 MOL     -0.006497
    127 H53         6.9650   -1.9280   -3.3510 hc        1 MOL      0.086865
    128 H54         7.1850   -3.2140   -2.0990 hc        1 MOL      0.086865
    129 H55         9.0230   -2.9400   -0.2500 ha        1 MOL      0.132291
    130 H56         8.9280   -0.9160   -3.9850 ha        1 MOL      0.132291
    131 H57        11.4810   -2.5830    0.0140 ha        1 MOL      0.101377
    132 H58        11.2880   -0.5150   -3.8480 ha        1 MOL      0.101377
    133 H59        12.6680   -1.4610   -1.9650 ha        1 MOL      0.105033
    134 N12         6.1420    0.9350   -1.9120 n         1 MOL      0.070211
    135 C45         6.3470    2.3710   -1.6320 c3        1 MOL      0.162700
    136 C46         5.5580    2.8560   -0.3780 c         1 MOL      0.187876
    137 O20         5.7300    3.9880    0.0710 o         1 MOL     -0.494264
    138 C47         5.8480    3.0590   -2.9360 c3        1 MOL     -0.220179
    139 C48         5.7700    2.0030   -4.0680 c3        1 MOL     -0.197755
    140 C49         5.4680    0.7790   -3.1840 c3        1 MOL     -0.172820
    141 H60         7.4090    2.5470   -1.4490 h1        1 MOL      0.049001
    142 H61         4.8700    3.5280   -2.8790 hc        1 MOL      0.101682
    143 H62         6.6170    3.7650   -3.2450 hc        1 MOL      0.101682
    144 H63         4.8710    2.2140   -4.6520 hc        1 MOL      0.093920
    145 H64         6.6160    1.8080   -4.7180 hc        1 MOL      0.093920
    146 H65         4.4020    0.7330   -2.9760 h1        1 MOL      0.103675
    147 H66         5.9920   -0.0160   -3.7280 h1        1 MOL      0.103675
    148 N13         4.5660    2.1330    0.1080 n         1 MOL     -0.038376
    149 C50         4.0210    2.3940    1.5130 c3        1 MOL     -0.118295
    150 C51         4.9310    1.7800    2.6660 c         1 MOL      0.425448
    151 O21         4.9430    2.2300    3.8230 o         1 MOL     -0.576695
    152 C52         2.6620    1.7040    1.6500 c3        1 MOL     -0.003725
    153 C53         1.6740    2.2040    0.5470 c3        1 MOL     -0.117098
    154 C54         0.3620    1.4280    0.6110 c         1 MOL      0.599216
    155 O22        -0.6270    1.9480    0.0610 o         1 MOL     -0.709731
    156 O23         0.2300    0.3510    1.2170 o         1 MOL     -0.709731
    157 H67         4.3800    1.1980   -0.2340 hn        1 MOL      0.083581
    158 H68         3.9080    3.4570    1.6890 h1        1 MOL      0.132456
    159 H69         2.3590    1.9420    2.6680 hc        1 MOL      0.053943
    160 H70         2.8300    0.6340    1.5940 hc        1 MOL      0.053943
    161 H71         2.1520    2.0160   -0.4050 hc        1 MOL      0.076718
    162 H72         1.5120    3.2780    0.4640 hc        1 MOL      0.076718
    163 N14         5.8750    0.9650    2.3400 n         1 MOL      0.013566
    164 C55         6.8310    0.2930    3.2590 c3        1 MOL     -0.260819
    165 H73         7.8280    0.3070    2.8200 h1        1 MOL      0.096080
    166 H74         6.8470    0.8170    4.2140 h1        1 MOL      0.096080
    167 H75         6.5180   -0.7400    3.4160 h1        1 MOL      0.096080
    168 H76         5.9480    0.6950    1.3680 hn        1 MOL      0.069338
    169 Ca1        -2.2770   -0.0980   -0.0430 Ca        1 MOL      1.644560
    170 O24        -4.9110   -0.4660    0.9950 oh        1 MOL     -0.806818
    171 H77        -4.9360    0.4860    1.1130 ho        1 MOL      0.400415
    172 H78        -5.2000   -0.8140    1.8340 ho        1 MOL      0.400415
    173 O25        -2.1010   -0.2730    2.7230 oh        1 MOL     -0.806818
    174 H79        -1.1720   -0.0690    2.6620 ho        1 MOL      0.400415
    175 H80        -2.2720   -0.3300    3.6700 ho        1 MOL      0.400415
@<TRIPOS>BOND
     1    1    2 1   
     2    1    4 1   
     3    1    5 1   
     4    1    6 1   
     5    2    3 2   
     6    2    7 1   
     7    7    8 1   
     8    7   15 1   
     9    8    9 1   
    10    8   11 1   
    11    8   16 1   
    12    9   10 2   
    13    9   19 1   
    14   11   12 1   
    15   11   17 1   
    16   11   18 1   
    17   12   13 1   
    18   12   14 1   
    19   19   20 1   
    20   19   24 1   
    21   20   21 1   
    22   20   23 1   
    23   20   25 1   
    24   21   22 2   
    25   21   29 1   
    26   23   26 1   
    27   23   27 1   
    28   23   28 1   
    29   29   30 1   
    30   29   37 1   
    31   30   31 1   
    32   30   33 1   
    33   30   38 1   
    34   31   32 2   
    35   31   41 1   
    36   33   34 1   
    37   33   39 1   
    38   33   40 1   
    39   34   35 1   
    40   34   36 1   
    41   41   42 1   
    42   41   45 1   
    43   42   43 1   
    44   42   46 1   
    45   42   47 1   
    46   43   44 2   
    47   43   48 1   
    48   48   49 1   
    49   48   56 1   
    50   49   50 1   
    51   49   52 1   
    52   49   57 1   
    53   50   51 2   
    54   50   62 1   
    55   52   53 1   
    56   52   58 1   
    57   52   59 1   
    58   53   54 1   
    59   53   55 2   
    60   54   60 1   
    61   54   61 1   
    62   62   63 1   
    63   62   66 1   
    64   63   64 1   
    65   63   67 1   
    66   63   68 1   
    67   64   65 2   
    68   64   69 1   
    69   69   70 1   
    70   69   76 1   
    71   70   71 1   
    72   70   73 1   
    73   70   77 1   
    74   71   72 2   
    75   71   83 1   
    76   73   74 1   
    77   73   75 1   
    78   73   78 1   
    79   74   80 1   
    80   74   81 1   
    81   74   82 1   
    82   75   79 1   
    83   83   84 1   
    84   83   91 1   
    85   84   85 1   
    86   84   87 1   
    87   84   92 1   
    88   85   86 2   
    89   85  102 1   
    90   87   88 1   
    91   87   89 1   
    92   87   93 1   
    93   88   90 1   
    94   88   94 1   
    95   88   95 1   
    96   89   96 1   
    97   89   97 1   
    98   89   98 1   
    99   90   99 1   
   100   90  100 1   
   101   90  101 1   
   102  102  103 1   
   103  102  110 1   
   104  103  104 1   
   105  103  106 1   
   106  103  111 1   
   107  104  105 2   
   108  104  114 1   
   109  106  107 1   
   110  106  112 1   
   111  106  113 1   
   112  107  108 1   
   113  107  109 1   
   114  114  115 1   
   115  114  125 1   
   116  115  116 1   
   117  115  118 1   
   118  115  126 1   
   119  116  117 2   
   120  116  134 1   
   121  118  119 1   
   122  118  127 1   
   123  118  128 1   
   124  119  120 ar  
   125  119  121 ar  
   126  120  122 ar  
   127  120  129 1   
   128  121  123 ar  
   129  121  130 1   
   130  122  124 ar  
   131  122  131 1   
   132  123  124 ar  
   133  123  132 1   
   134  124  133 1   
   135  134  135 1   
   136  134  140 1   
   137  135  136 1   
   138  135  138 1   
   139  135  141 1   
   140  136  137 2   
   141  136  148 1   
   142  138  139 1   
   143  138  142 1   
   144  138  143 1   
   145  139  140 1   
   146  139  144 1   
   147  139  145 1   
   148  140  146 1   
   149  140  147 1   
   150  148  149 1   
   151  148  157 1   
   152  149  150 1   
   153  149  152 1   
   154  149  158 1   
   155  150  151 2   
   156  150  163 1   
   157  152  153 1   
   158  152  159 1   
   159  152  160 1   
   160  153  154 1   
   161  153  161 1   
   162  153  162 1   
   163  154  155 1   
   164  154  156 1   
   165  163  164 1   
   166  163  168 1   
   167  164  165 1   
   168  164  166 1   
   169  164  167 1   
   170  170  171 1   
   171  170  172 1   
   172  173  174 1   
   173  173  175 1   
@<TRIPOS>SUBSTRUCTURE
     1 MOL         1 TEMP              0 ****  ****    0 ROOT
