@<TRIPOS>MOLECULE
MOL
  175   173     1     0     0
SMALL
resp


@<TRIPOS>ATOM
      1 C1         -0.3840   -3.9120    5.6490 c3        1 MOL     -0.458730
      2 C2          0.1640   -3.9970    4.2050 c         1 MOL      0.696008
      3 O1         -0.5350   -4.1980    3.2200 o         1 MOL     -0.554580
      4 H1          0.4150   -4.1430    6.3540 hc        1 MOL      0.115064
      5 H2         -0.7560   -2.9060    5.8380 hc        1 MOL      0.115064
      6 H3         -1.1950   -4.6290    5.7730 hc        1 MOL      0.115064
      7 N1          1.4130   -3.6710    4.0370 n         1 MOL     -0.560337
      8 C3          2.0830   -3.4820    2.7280 c3        1 MOL      0.172330
      9 C4          2.1570   -4.6760    1.7880 c         1 MOL      0.485019
     10 O2          2.3000   -5.8160    2.2410 o         1 MOL     -0.556413
     11 C5          3.4830   -2.9790    2.9850 c3        1 MOL     -0.484134
     12 C6          4.0200   -2.2750    1.7990 c         1 MOL      0.860472
     13 O3          3.3120   -1.8750    0.8700 o         1 MOL     -0.705914
     14 O4          5.1710   -1.8120    1.8370 o         1 MOL     -0.705914
     15 H4          1.9900   -3.5140    4.8620 hn        1 MOL      0.306608
     16 H5          1.5200   -2.7190    2.1840 h1        1 MOL      0.030488
     17 H6          4.1050   -3.8520    3.1640 hc        1 MOL      0.118620
     18 H7          3.4720   -2.3650    3.8800 hc        1 MOL      0.118620
     19 N2          2.0530   -4.3950    0.4560 n         1 MOL     -0.515557
     20 C7          2.2040   -5.3370   -0.6820 c3        1 MOL      0.318474
     21 C8          3.3930   -5.0340   -1.5990 c         1 MOL      0.445356
     22 O5          3.8290   -5.8660   -2.3530 o         1 MOL     -0.586007
     23 C9          0.8690   -5.2830   -1.4100 c3        1 MOL     -0.396577
     24 H8          1.8870   -3.4290    0.2280 hn        1 MOL      0.599007
     25 H9          2.3120   -6.3400   -0.2590 h1        1 MOL      0.009796
     26 H10         0.9960   -5.5330   -2.4600 hc        1 MOL      0.095723
     27 H11         0.2530   -6.0190   -0.8970 hc        1 MOL      0.095723
     28 H12         0.4410   -4.2850   -1.3160 hc        1 MOL      0.095723
     29 N3          4.0450   -3.8740   -1.4850 n         1 MOL     -0.356238
     30 C10         5.0670   -3.4120   -2.4390 c3        1 MOL      0.389462
     31 C11         6.3360   -2.6790   -1.9740 c         1 MOL      0.213209
     32 O6          7.3570   -2.7190   -2.6150 o         1 MOL     -0.518928
     33 C12         4.3680   -2.5930   -3.5500 c3        1 MOL     -0.345198
     34 C13         3.3460   -1.5800   -2.9660 c         1 MOL      0.788652
     35 O7          2.2680   -1.4640   -3.6160 o         1 MOL     -0.683996
     36 O8          3.6570   -0.8980   -1.9960 o         1 MOL     -0.683996
     37 H13         3.6920   -3.2440   -0.7770 hn        1 MOL      0.017894
     38 H14         5.6150   -4.1940   -2.9740 h1        1 MOL      0.015992
     39 H15         3.7280   -3.2030   -4.1750 hc        1 MOL      0.060446
     40 H16         5.1860   -2.0720   -4.0530 hc        1 MOL      0.060446
     41 N4          6.2660   -2.0320   -0.8580 n         1 MOL      0.013155
     42 C14         7.4030   -1.3120   -0.2710 c3        1 MOL     -0.272111
     43 C15         7.5030    0.1980   -0.7880 c         1 MOL      0.434375
     44 O9          8.6020    0.7610   -0.9020 o         1 MOL     -0.579906
     45 H17         5.3510   -2.0560   -0.4230 hn        1 MOL      0.044035
     46 H18         8.2660   -1.8700   -0.6530 h1        1 MOL      0.130182
     47 H19         7.3640   -1.3870    0.8080 h1        1 MOL      0.130182
     48 N5          6.4010    0.7380   -1.3000 n         1 MOL      0.010396
     49 C16         6.4100    2.0710   -1.8910 c3        1 MOL     -0.311310
     50 C17         6.2320    3.2760   -0.9220 c         1 MOL      0.529248
     51 O10         6.0580    4.3800   -1.4180 o         1 MOL     -0.523525
     52 C18         5.2720    2.1730   -3.0020 c3        1 MOL     -0.008843
     53 C19         3.7910    2.2230   -2.4890 c         1 MOL      0.315233
     54 N6          2.7510    2.1700   -3.2970 n         1 MOL     -0.632910
     55 O11         3.4910    2.1910   -1.3090 o         1 MOL     -0.131528
     56 H20         5.5440    0.2090   -1.2490 hn        1 MOL      0.134376
     57 H21         7.3420    2.2590   -2.4160 h1        1 MOL      0.170980
     58 H22         5.2560    1.3000   -3.6550 hc        1 MOL      0.036978
     59 H23         5.4010    3.0160   -3.6930 hc        1 MOL      0.036978
     60 H24         2.9240    2.0430   -4.2840 hn        1 MOL      0.329577
     61 H25         1.8060    2.0640   -2.9500 hn        1 MOL      0.329577
     62 N7          6.1980    3.0600    0.3850 n         1 MOL     -0.277976
     63 C20         6.1510    4.1270    1.3780 c3        1 MOL     -0.188686
     64 C21         4.7390    4.8290    1.5770 c         1 MOL      0.552716
     65 O12         4.6930    5.6870    2.4430 o         1 MOL     -0.587285
     66 H26         6.1510    2.1070    0.7280 hn        1 MOL      0.208299
     67 H27         6.8640    4.9390    1.2200 h1        1 MOL      0.108795
     68 H28         6.4170    3.7110    2.3430 h1        1 MOL      0.108795
     69 N8          3.6260    4.2860    1.0610 n         1 MOL     -0.212863
     70 C22         2.1930    4.7240    1.2540 c3        1 MOL     -0.108562
     71 C23         1.2180    3.6140    1.4930 c         1 MOL      0.733783
     72 O13         1.4120    2.5740    0.9070 o         1 MOL     -0.629620
     73 C24         1.6490    5.6250    0.0890 c3        1 MOL      0.542033
     74 C25         2.3650    6.9900    0.0390 c3        1 MOL     -0.465447
     75 O14         1.7050    5.0180   -1.1970 oh        1 MOL     -0.552237
     76 H29         3.8280    3.5710    0.3770 hn        1 MOL     -0.007614
     77 H30         2.1980    5.3360    2.1550 h1        1 MOL      0.074850
     78 H31         0.6280    5.8720    0.3850 h1        1 MOL     -0.053258
     79 H32         1.3850    4.1440   -0.9780 ho        1 MOL      0.291775
     80 H33         2.4450    7.3350    1.0680 hc        1 MOL      0.112855
     81 H34         3.3990    6.7810   -0.2450 hc        1 MOL      0.112855
     82 H35         1.8330    7.6030   -0.6880 hc        1 MOL      0.112855
     83 N9          0.0910    3.8580    2.2400 n         1 MOL     -0.811370
     84 C26        -1.0730    2.9810    2.0200 c3        1 MOL      0.072407
     85 C27        -1.6980    3.0500    0.5830 c         1 MOL      0.625331
     86 O15        -2.1870    4.1130    0.2200 o         1 MOL     -0.623850
     87 C28        -2.1040    3.1270    3.1240 c3        1 MOL      0.403652
     88 C29        -1.4400    3.4680    4.4890 c3        1 MOL      0.053061
     89 C30        -2.9580    1.8450    3.2770 c3        1 MOL     -0.579727
     90 C31        -2.4680    3.6170    5.5570 c3        1 MOL     -0.164476
     91 H36         0.0200    4.7250    2.7640 hn        1 MOL      0.325248
     92 H37        -0.7120    1.9600    2.1350 h1        1 MOL      0.070716
     93 H38        -2.7960    3.9100    2.8000 hc        1 MOL     -0.064810
     94 H39        -1.0810    4.4950    4.4210 hc        1 MOL      0.003483
     95 H40        -0.7150    2.7520    4.8760 hc        1 MOL      0.003483
     96 H41        -3.9910    2.0050    3.5770 hc        1 MOL      0.115125
     97 H42        -3.0660    1.3390    2.3190 hc        1 MOL      0.115125
     98 H43        -2.4540    1.1250    3.9360 hc        1 MOL      0.115125
     99 H44        -3.4150    3.9560    5.1310 hc        1 MOL      0.027417
    100 H45        -2.6640    2.6750    6.0560 hc        1 MOL      0.027417
    101 H46        -2.1550    4.4480    6.1890 hc        1 MOL      0.027417
    102 N10        -1.7820    1.9650   -0.1650 n         1 MOL     -0.320440
    103 C32        -2.5380    1.7170   -1.3820 c3        1 MOL      0.097165
    104 C33        -3.9330    1.2760   -1.0230 c         1 MOL      0.254513
    105 O16        -4.0630    0.5340   -0.0680 o         1 MOL     -0.229578
    106 C34        -1.7840    0.7570   -2.2640 c3        1 MOL     -0.214343
    107 C35        -0.3970    1.1460   -2.6970 c         1 MOL      0.673327
    108 O17         0.5510    1.1520   -1.8420 o         1 MOL     -0.646879
    109 O18        -0.1470    1.5170   -3.8570 o         1 MOL     -0.646879
    110 H47        -1.1850    1.1980    0.1370 hn        1 MOL      0.201099
    111 H48        -2.5850    2.6100   -2.0070 h1        1 MOL      0.056520
    112 H49        -2.4690    0.7090   -3.1160 hc        1 MOL      0.061788
    113 H50        -1.6650   -0.2320   -1.8340 hc        1 MOL      0.061788
    114 N11        -4.9810    1.6540   -1.7330 n         1 MOL     -0.390189
    115 C36        -6.3250    1.3490   -1.2910 c3        1 MOL      0.243790
    116 C37        -6.5600   -0.1800   -1.0510 c         1 MOL      0.255072
    117 O19        -7.2330   -0.5390   -0.0820 o         1 MOL     -0.484624
    118 C38        -7.3430    1.9000   -2.2930 c3        1 MOL     -0.268528
    119 C39        -8.8160    1.7610   -2.0720 ca        1 MOL      0.072987
    120 C40        -9.5050    2.8800   -1.6180 ca        1 MOL     -0.083758
    121 C41        -9.5250    0.5980   -2.3110 ca        1 MOL     -0.083758
    122 C42       -10.8740    2.7530   -1.2810 ca        1 MOL     -0.194859
    123 C43       -10.9270    0.5150   -2.0970 ca        1 MOL     -0.194859
    124 C44       -11.5850    1.5900   -1.5450 ca        1 MOL     -0.038460
    125 H51        -4.8870    2.2350   -2.5510 hn        1 MOL      0.274685
    126 H52        -6.4540    1.9600   -0.3990 h1        1 MOL      0.068618
    127 H53        -7.0890    1.4710   -3.2570 hc        1 MOL      0.078580
    128 H54        -7.1740    2.9650   -2.3890 hc        1 MOL      0.078580
    129 H55        -8.9710    3.7990   -1.4370 ha        1 MOL      0.094583
    130 H56        -8.9620   -0.2350   -2.7090 ha        1 MOL      0.094583
    131 H57       -11.3360    3.4810   -0.6340 ha        1 MOL      0.127235
    132 H58       -11.4460   -0.4230   -2.1820 ha        1 MOL      0.127235
    133 H59       -12.5930    1.5070   -1.1740 ha        1 MOL      0.090637
    134 N12        -6.0500   -1.1390   -1.8560 n         1 MOL      0.100994
    135 C45        -6.0960   -2.6200   -1.5140 c3        1 MOL     -0.027225
    136 C46        -5.5010   -3.1240   -0.1930 c         1 MOL      0.304194
    137 O20        -5.9150   -4.1570    0.3090 o         1 MOL     -0.495765
    138 C47        -5.4390   -3.2230   -2.7570 c3        1 MOL     -0.078787
    139 C48        -5.7450   -2.2370   -3.8320 c3        1 MOL     -0.047354
    140 C49        -5.5100   -0.9080   -3.1580 c3        1 MOL     -0.043569
    141 H60        -7.1630   -2.8530   -1.4640 h1        1 MOL      0.065953
    142 H61        -4.3610   -3.2370   -2.5950 hc        1 MOL      0.064709
    143 H62        -5.8240   -4.2110   -3.0340 hc        1 MOL      0.064709
    144 H63        -5.0470   -2.3570   -4.6600 hc        1 MOL      0.020019
    145 H64        -6.7710   -2.1750   -4.2040 hc        1 MOL      0.020019
    146 H65        -4.4290   -0.8490   -3.1230 h1        1 MOL      0.034327
    147 H66        -5.8910   -0.0180   -3.6670 h1        1 MOL      0.034327
    148 N13        -4.5590   -2.3430    0.3840 n         1 MOL     -0.061030
    149 C50        -3.8970   -2.6070    1.7190 c3        1 MOL      0.002101
    150 C51        -4.6690   -1.8070    2.8220 c         1 MOL      0.400800
    151 O21        -4.8880   -2.3160    3.9100 o         1 MOL     -0.570220
    152 C52        -2.4480   -2.0090    1.6480 c3        1 MOL     -0.040752
    153 C53        -1.5160   -2.5100    0.4830 c3        1 MOL     -0.081994
    154 C54        -0.2920   -1.6680    0.4040 c         1 MOL      0.843423
    155 O22         0.6180   -2.0330   -0.3370 o         1 MOL     -0.797414
    156 O23        -0.1900   -0.5570    0.9860 o         1 MOL     -0.797414
    157 H67        -4.1910   -1.5790   -0.1580 hn        1 MOL      0.056298
    158 H68        -3.9230   -3.6760    1.9590 h1        1 MOL      0.089427
    159 H69        -1.9840   -2.2380    2.6110 hc        1 MOL      0.031305
    160 H70        -2.6170   -0.9380    1.5980 hc        1 MOL      0.031305
    161 H71        -2.0220   -2.4480   -0.4870 hc        1 MOL      0.019094
    162 H72        -1.3010   -3.5680    0.6540 hc        1 MOL      0.019094
    163 N14        -5.3530   -0.7380    2.4480 n         1 MOL      0.029671
    164 C55        -6.4480   -0.1520    3.2790 c3        1 MOL     -0.141408
    165 H73        -6.0560    0.6800    3.8630 h1        1 MOL      0.062044
    166 H74        -7.2470    0.2040    2.6300 h1        1 MOL      0.062044
    167 H75        -6.8400   -0.9140    3.9530 h1        1 MOL      0.062044
    168 H76        -5.1930   -0.4370    1.4940 hn        1 MOL     -0.016202
    169 Ca1         2.2540    0.1760   -0.1270 Ca        1 MOL      1.547928
    170 O24         1.8160   -0.1990    2.6440 oh        1 MOL     -0.745879
    171 H77         2.0180   -0.3190    3.5770 ho        1 MOL      0.370180
    172 H78         0.8580   -0.2770    2.5950 ho        1 MOL      0.370180
    173 O25         4.3870    0.7140    1.4040 oh        1 MOL     -0.745879
    174 H79         4.8890    1.1380    2.1030 ho        1 MOL      0.370180
    175 H80         4.6690   -0.1980    1.4190 ho        1 MOL      0.370180
@<TRIPOS>BOND
     1    1    2 1   
     2    1    4 1   
     3    1    5 1   
     4    1    6 1   
     5    2    3 2   
     6    2    7 1   
     7    7    8 1   
     8    7   15 1   
     9    8    9 1   
    10    8   11 1   
    11    8   16 1   
    12    9   10 2   
    13    9   19 1   
    14   11   12 1   
    15   11   17 1   
    16   11   18 1   
    17   12   13 1   
    18   12   14 1   
    19   19   20 1   
    20   19   24 1   
    21   20   21 1   
    22   20   23 1   
    23   20   25 1   
    24   21   22 2   
    25   21   29 1   
    26   23   26 1   
    27   23   27 1   
    28   23   28 1   
    29   29   30 1   
    30   29   37 1   
    31   30   31 1   
    32   30   33 1   
    33   30   38 1   
    34   31   32 2   
    35   31   41 1   
    36   33   34 1   
    37   33   39 1   
    38   33   40 1   
    39   34   35 1   
    40   34   36 1   
    41   41   42 1   
    42   41   45 1   
    43   42   43 1   
    44   42   46 1   
    45   42   47 1   
    46   43   44 2   
    47   43   48 1   
    48   48   49 1   
    49   48   56 1   
    50   49   50 1   
    51   49   52 1   
    52   49   57 1   
    53   50   51 2   
    54   50   62 1   
    55   52   53 1   
    56   52   58 1   
    57   52   59 1   
    58   53   54 1   
    59   53   55 2   
    60   54   60 1   
    61   54   61 1   
    62   62   63 1   
    63   62   66 1   
    64   63   64 1   
    65   63   67 1   
    66   63   68 1   
    67   64   65 2   
    68   64   69 1   
    69   69   70 1   
    70   69   76 1   
    71   70   71 1   
    72   70   73 1   
    73   70   77 1   
    74   71   72 2   
    75   71   83 1   
    76   73   74 1   
    77   73   75 1   
    78   73   78 1   
    79   74   80 1   
    80   74   81 1   
    81   74   82 1   
    82   75   79 1   
    83   83   84 1   
    84   83   91 1   
    85   84   85 1   
    86   84   87 1   
    87   84   92 1   
    88   85   86 2   
    89   85  102 1   
    90   87   88 1   
    91   87   89 1   
    92   87   93 1   
    93   88   90 1   
    94   88   94 1   
    95   88   95 1   
    96   89   96 1   
    97   89   97 1   
    98   89   98 1   
    99   90   99 1   
   100   90  100 1   
   101   90  101 1   
   102  102  103 1   
   103  102  110 1   
   104  103  104 1   
   105  103  106 1   
   106  103  111 1   
   107  104  105 2   
   108  104  114 1   
   109  106  107 1   
   110  106  112 1   
   111  106  113 1   
   112  107  108 1   
   113  107  109 1   
   114  114  115 1   
   115  114  125 1   
   116  115  116 1   
   117  115  118 1   
   118  115  126 1   
   119  116  117 2   
   120  116  134 1   
   121  118  119 1   
   122  118  127 1   
   123  118  128 1   
   124  119  120 ar  
   125  119  121 ar  
   126  120  122 ar  
   127  120  129 1   
   128  121  123 ar  
   129  121  130 1   
   130  122  124 ar  
   131  122  131 1   
   132  123  124 ar  
   133  123  132 1   
   134  124  133 1   
   135  134  135 1   
   136  134  140 1   
   137  135  136 1   
   138  135  138 1   
   139  135  141 1   
   140  136  137 2   
   141  136  148 1   
   142  138  139 1   
   143  138  142 1   
   144  138  143 1   
   145  139  140 1   
   146  139  144 1   
   147  139  145 1   
   148  140  146 1   
   149  140  147 1   
   150  148  149 1   
   151  148  157 1   
   152  149  150 1   
   153  149  152 1   
   154  149  158 1   
   155  150  151 2   
   156  150  163 1   
   157  152  153 1   
   158  152  159 1   
   159  152  160 1   
   160  153  154 1   
   161  153  161 1   
   162  153  162 1   
   163  154  155 1   
   164  154  156 1   
   165  163  164 1   
   166  163  168 1   
   167  164  165 1   
   168  164  166 1   
   169  164  167 1   
   170  170  171 1   
   171  170  172 1   
   172  173  174 1   
   173  173  175 1   
@<TRIPOS>SUBSTRUCTURE
     1 MOL         1 TEMP              0 ****  ****    0 ROOT
