@<TRIPOS>MOLECULE
MOL
  181   177     1     0     0
SMALL
resp


@<TRIPOS>ATOM
      1 C1         -0.3760    3.7270    5.4070 c3        1 MOL     -0.291696
      2 C2         -0.4250    3.2340    3.9690 c         1 MOL      0.747866
      3 O1          0.3010    3.7190    3.1050 o         1 MOL     -0.570566
      4 H1         -0.3110    4.8150    5.4150 hc        1 MOL      0.064696
      5 H2         -1.2780    3.4130    5.9310 hc        1 MOL      0.064696
      6 H3          0.5000    3.3090    5.9060 hc        1 MOL      0.064696
      7 N1         -1.4500    2.4250    3.6320 n         1 MOL     -0.603994
      8 C3         -1.9580    2.2230    2.2810 c3        1 MOL     -0.087518
      9 C4         -2.2760    3.5280    1.5450 c         1 MOL      0.961816
     10 O2         -2.8230    4.4740    2.1380 o         1 MOL     -0.642325
     11 C5         -3.3120    1.4330    2.3740 c3        1 MOL     -0.035644
     12 C6         -3.6840    0.8650    0.9660 c         1 MOL      0.900807
     13 O3         -4.8830    0.5190    0.8240 o         1 MOL     -0.690699
     14 O4         -2.8180    0.8750    0.1080 o         1 MOL     -0.690699
     15 H4         -1.9890    2.0790    4.4100 hn        1 MOL      0.319292
     16 H5         -1.1900    1.6200    1.7780 h1        1 MOL     -0.029670
     17 H6         -4.1610    2.0180    2.7390 hc        1 MOL     -0.005038
     18 H7         -3.1810    0.5700    3.0230 hc        1 MOL     -0.005038
     19 N2         -2.1140    3.5440    0.2320 n         1 MOL     -0.886144
     20 C7         -2.2080    4.7180   -0.6180 c3        1 MOL      0.424633
     21 C8         -3.5520    4.6800   -1.3900 c         1 MOL      0.287389
     22 O5         -3.9120    5.6190   -2.0600 o         1 MOL     -0.531879
     23 C9         -0.9200    4.8320   -1.4150 c3        1 MOL     -0.378667
     24 H8         -1.7220    2.7610   -0.2610 hn        1 MOL      0.463797
     25 H9         -2.2310    5.5640    0.0720 h1        1 MOL     -0.006939
     26 H10         0.0050    4.8250   -0.8340 hc        1 MOL      0.113834
     27 H11        -0.8910    3.9940   -2.1070 hc        1 MOL      0.113834
     28 H12        -0.9890    5.7310   -2.0270 hc        1 MOL      0.113834
     29 N3         -4.3540    3.5910   -1.3060 n         1 MOL     -0.038261
     30 C10        -5.6060    3.3920   -1.9640 c3        1 MOL      0.173214
     31 C11        -6.8450    3.3470   -0.9900 c         1 MOL      0.226618
     32 O6         -7.9250    3.6790   -1.4160 o         1 MOL     -0.478094
     33 C12        -5.6050    2.0620   -2.7120 c3        1 MOL      0.127387
     34 C13        -4.3010    1.7100   -3.4120 c         1 MOL      0.475710
     35 O7         -4.1210    2.1810   -4.5810 o         1 MOL     -0.661161
     36 O8         -3.4030    1.0310   -2.8480 o         1 MOL     -0.661161
     37 H13        -3.9700    2.8100   -0.7890 hn        1 MOL      0.041669
     38 H14        -5.7700    4.1810   -2.7020 h1        1 MOL      0.027391
     39 H15        -6.4270    2.1500   -3.4200 hc        1 MOL     -0.051508
     40 H16        -5.9440    1.2620   -2.0630 hc        1 MOL     -0.051508
     41 N4         -6.5830    2.8410    0.1920 n         1 MOL     -0.072291
     42 C14        -7.6030    2.3820    1.1530 c3        1 MOL     -0.126891
     43 C15        -8.1920    1.0600    0.7360 c         1 MOL      0.399779
     44 O9         -9.3980    0.8010    0.9230 o         1 MOL     -0.579012
     45 H17        -5.6210    2.7320    0.4920 hn        1 MOL      0.025556
     46 H18        -8.4120    3.1040    1.2830 h1        1 MOL      0.089142
     47 H19        -7.0490    2.2190    2.0760 h1        1 MOL      0.089142
     48 N5         -7.4060    0.1320    0.2440 n         1 MOL     -0.108282
     49 C16        -7.8320   -1.2090   -0.1060 c3        1 MOL      0.122447
     50 C17        -7.0700   -2.2390    0.9150 c         1 MOL      0.372339
     51 O10        -7.5720   -3.3380    1.1530 o         1 MOL     -0.510027
     52 C18        -7.4800   -1.3890   -1.5820 c3        1 MOL     -0.200699
     53 C19        -8.2390   -2.5580   -2.1490 c         1 MOL      0.631374
     54 N6         -7.9920   -2.8580   -3.3920 n         1 MOL     -0.721853
     55 O11        -8.9990   -3.2720   -1.5000 o         1 MOL     -0.539491
     56 H20        -6.4500    0.4380    0.1250 hn        1 MOL      0.251697
     57 H21        -8.8920   -1.3550    0.1260 h1        1 MOL      0.071696
     58 H22        -6.4010   -1.4970   -1.7300 hc        1 MOL      0.030166
     59 H23        -7.8030   -0.4820   -2.0820 hc        1 MOL      0.030166
     60 H24        -7.3960   -2.2190   -3.8840 hn        1 MOL      0.331959
     61 H25        -8.5690   -3.5320   -3.8880 hn        1 MOL      0.331959
     62 N7         -6.1130   -1.7780    1.6860 n         1 MOL     -0.188823
     63 C20        -5.6730   -2.4220    2.9440 c3        1 MOL     -0.117404
     64 C21        -4.3290   -3.2340    2.9280 c         1 MOL      0.541785
     65 O12        -4.0100   -3.7740    4.0110 o         1 MOL     -0.581159
     66 H26        -5.8680   -0.8000    1.6250 hn        1 MOL      0.097702
     67 H27        -6.4610   -3.1230    3.2190 h1        1 MOL      0.085746
     68 H28        -5.5890   -1.6920    3.7610 h1        1 MOL      0.085746
     69 N8         -3.5730   -3.1900    1.8190 n         1 MOL     -0.377290
     70 C22        -2.2060   -3.7160    1.7290 c3        1 MOL      0.316413
     71 C23        -1.1000   -2.6490    1.2710 c         1 MOL      0.085725
     72 O13        -1.4920   -1.6330    0.6900 o         1 MOL     -0.353247
     73 C24        -2.1090   -4.9910    0.8880 c3        1 MOL      0.115041
     74 C25        -3.0190   -6.1650    1.2840 c3        1 MOL     -0.349716
     75 O14        -2.3850   -4.7130   -0.4400 oh        1 MOL     -0.471393
     76 H29        -3.8290   -2.5490    1.0920 hn        1 MOL      0.194004
     77 H30        -1.9550   -4.1420    2.7000 h1        1 MOL      0.012746
     78 H31        -1.0690   -5.2800    0.9690 h1        1 MOL      0.016693
     79 H32        -2.7290   -5.5260   -0.8290 ho        1 MOL      0.355773
     80 H33        -4.0770   -5.9330    1.2920 hc        1 MOL      0.099746
     81 H34        -2.8750   -7.0290    0.6260 hc        1 MOL      0.099746
     82 H35        -2.7610   -6.4380    2.2980 hc        1 MOL      0.099746
     83 N9          0.1910   -2.9160    1.5630 n         1 MOL     -0.176236
     84 C26         1.3210   -1.9560    1.4690 c3        1 MOL     -0.235741
     85 C27         2.6000   -2.5530    0.6770 c         1 MOL      0.452580
     86 O15         3.2490   -3.4300    1.2010 o         1 MOL     -0.541295
     87 C28         1.6280   -1.3400    2.8930 c3        1 MOL      0.265817
     88 C29         2.2030   -2.3250    3.9190 c3        1 MOL     -0.058250
     89 C30         0.3710   -0.6670    3.4180 c3        1 MOL     -0.209644
     90 C31         2.5190   -1.7700    5.2960 c3        1 MOL      0.036208
     91 H36         0.4310   -3.7390    2.1090 hn        1 MOL      0.246356
     92 H37         1.0390   -1.0580    0.9130 h1        1 MOL      0.096133
     93 H38         2.3750   -0.5750    2.7290 hc        1 MOL     -0.064195
     94 H39         3.1230   -2.7700    3.5480 hc        1 MOL      0.001536
     95 H40         1.4570   -3.1010    4.0420 hc        1 MOL      0.001536
     96 H41         0.7620    0.0700    4.1020 hc        1 MOL      0.064384
     97 H42        -0.1380   -0.1650    2.5940 hc        1 MOL      0.064384
     98 H43        -0.2130   -1.4310    3.9410 hc        1 MOL      0.064384
     99 H44         1.6150   -1.3260    5.7160 hc        1 MOL     -0.022089
    100 H45         2.8460   -2.6340    5.8720 hc        1 MOL     -0.022089
    101 H46         3.3140   -1.0290    5.3620 hc        1 MOL     -0.022089
    102 N10         2.8370   -2.1040   -0.5400 n         1 MOL     -0.397326
    103 C32         4.0420   -2.4410   -1.3170 c3        1 MOL      0.245222
    104 C33         5.2500   -1.6560   -0.7530 c         1 MOL      0.261336
    105 O16         5.0680   -0.7370   -0.0040 o         1 MOL     -0.147380
    106 C34         3.7800   -2.1350   -2.8030 c3        1 MOL     -0.440126
    107 C35         2.6020   -2.8340   -3.4620 c         1 MOL      0.838345
    108 O17         2.1940   -2.4220   -4.5580 o         1 MOL     -0.722755
    109 O18         2.0080   -3.7460   -2.9110 o         1 MOL     -0.722755
    110 H47         2.1930   -1.4010   -0.8740 hn        1 MOL      0.453159
    111 H48         4.2290   -3.5140   -1.1950 h1        1 MOL      0.045563
    112 H49         4.6090   -2.4350   -3.4600 hc        1 MOL      0.070581
    113 H50         3.6830   -1.0540   -2.9000 hc        1 MOL      0.070581
    114 N11         6.4740   -1.9720   -1.1580 n         1 MOL     -0.550256
    115 C36         7.7000   -1.2980   -0.6470 c3        1 MOL      0.370931
    116 C37         7.6390    0.1650   -0.3410 c         1 MOL      0.403484
    117 O19         7.6500    0.4730    0.8170 o         1 MOL     -0.511564
    118 C38         8.9100   -1.4690   -1.5540 c3        1 MOL     -0.158294
    119 C39        10.3200   -1.0830   -1.0540 ca        1 MOL      0.124851
    120 C40        10.6940   -1.5640    0.2390 ca        1 MOL     -0.215958
    121 C41        11.1720   -0.2730   -1.8090 ca        1 MOL     -0.215958
    122 C42        11.8820   -1.0260    0.8310 ca        1 MOL     -0.085405
    123 C43        12.3350    0.2530   -1.2420 ca        1 MOL     -0.085405
    124 C44        12.6510   -0.0710    0.0940 ca        1 MOL     -0.133039
    125 H51         6.5520   -2.6160   -1.9290 hn        1 MOL      0.301731
    126 H52         8.0810   -1.8400    0.2120 h1        1 MOL      0.017222
    127 H53         8.7240   -0.9720   -2.5020 hc        1 MOL      0.033799
    128 H54         9.0060   -2.5450   -1.7120 hc        1 MOL      0.033799
    129 H55        10.0980   -2.2680    0.7990 ha        1 MOL      0.141997
    130 H56        10.8950   -0.0080   -2.8100 ha        1 MOL      0.141997
    131 H57        12.1750   -1.2610    1.8470 ha        1 MOL      0.111298
    132 H58        12.9850    0.9110   -1.7960 ha        1 MOL      0.111298
    133 H59        13.5060    0.4050    0.5650 ha        1 MOL      0.103097
    134 N12         7.2590    1.0900   -1.2920 n         1 MOL     -0.158382
    135 C45         7.1160    2.4760   -0.9850 c3        1 MOL      0.022463
    136 C46         6.0100    2.7960    0.0720 c         1 MOL      0.316923
    137 O20         6.2090    3.8250    0.8080 o         1 MOL     -0.547974
    138 C47         6.7580    3.0680   -2.3220 c3        1 MOL     -0.275446
    139 C48         5.8760    2.0830   -2.9700 c3        1 MOL      0.125413
    140 C49         6.7260    0.8600   -2.6260 c3        1 MOL     -0.217616
    141 H60         8.1120    2.8420   -0.7300 h1        1 MOL      0.084682
    142 H61         6.2150    4.0000   -2.2580 hc        1 MOL      0.099152
    143 H62         7.6620    3.1910   -2.9230 hc        1 MOL      0.099152
    144 H63         4.9990    1.9720   -2.3340 hc        1 MOL      0.004997
    145 H64         5.6860    2.0910   -4.0390 hc        1 MOL      0.004997
    146 H65         6.1600   -0.0690   -2.5880 h1        1 MOL      0.083775
    147 H66         7.5990    0.7420   -3.2690 h1        1 MOL      0.083775
    148 N13         4.9550    2.0320    0.2360 n         1 MOL      0.051676
    149 C50         3.8150    2.3240    1.1690 c3        1 MOL     -0.339610
    150 C51         4.1940    1.7640    2.6010 c         1 MOL      0.486255
    151 O21         3.7090    2.2210    3.6330 o         1 MOL     -0.529535
    152 C52         2.5320    1.4830    0.6540 c3        1 MOL      0.215461
    153 C53         2.0190    2.1280   -0.6930 c3        1 MOL     -0.222803
    154 C54         0.8630    1.2280   -1.1510 c         1 MOL      0.880917
    155 O22        -0.1460    1.7640   -1.6510 o         1 MOL     -0.837225
    156 O23         0.8430   -0.0140   -1.0290 o         1 MOL     -0.837225
    157 H67         4.9760    1.1010   -0.1500 hn        1 MOL      0.221189
    158 H68         3.4910    3.3640    1.2470 h1        1 MOL      0.189053
    159 H69         1.7180    1.4060    1.3780 hc        1 MOL     -0.018074
    160 H70         2.8890    0.4720    0.4870 hc        1 MOL     -0.018074
    161 H71         2.8000    2.1130   -1.4630 hc        1 MOL      0.024912
    162 H72         1.7470    3.1790   -0.6050 hc        1 MOL      0.024912
    163 N14         5.1010    0.7060    2.6120 n         1 MOL      0.040716
    164 C55         5.8110    0.1610    3.7530 c3        1 MOL     -0.521465
    165 H73         5.8490   -0.9250    3.6730 h1        1 MOL      0.167001
    166 H74         6.8260    0.5580    3.7750 h1        1 MOL      0.167001
    167 H75         5.2930    0.4390    4.6710 h1        1 MOL      0.167001
    168 H76         5.4120    0.3440    1.7220 hn        1 MOL     -0.043755
    169 Ca1        -1.5570   -0.5650   -1.7670 Ca        1 MOL      1.753227
    170 O24        -3.1770   -1.6270   -3.6390 oh        1 MOL     -0.828122
    171 H77        -3.3530   -0.7870   -4.0540 ho        1 MOL      0.390980
    172 H78        -3.5240   -2.2760   -4.2580 ho        1 MOL      0.390980
    173 O25         0.0050   -0.8000   -3.9070 oh        1 MOL     -0.828122
    174 H79        -0.1840   -0.3630   -4.7270 ho        1 MOL      0.390980
    175 H80         0.8180   -1.2760   -4.0740 ho        1 MOL      0.390980
    176 O26        -4.0540   -1.5890   -0.7360 oh        1 MOL     -0.828122
    177 H81        -4.3950   -0.8210   -0.2910 ho        1 MOL      0.390980
    178 H82        -4.8050   -1.9330   -1.2380 ho        1 MOL      0.390980
    179 O27        -0.5530   -3.1890   -2.1290 oh        1 MOL     -0.828122
    180 H83         0.3860   -3.3160   -2.3020 ho        1 MOL      0.390980
    181 H84        -0.8830   -4.0770   -1.9610 ho        1 MOL      0.390980
@<TRIPOS>BOND
     1    1    2 1   
     2    1    4 1   
     3    1    5 1   
     4    1    6 1   
     5    2    3 2   
     6    2    7 1   
     7    7    8 1   
     8    7   15 1   
     9    8    9 1   
    10    8   11 1   
    11    8   16 1   
    12    9   10 2   
    13    9   19 1   
    14   11   12 1   
    15   11   17 1   
    16   11   18 1   
    17   12   13 1   
    18   12   14 1   
    19   19   20 1   
    20   19   24 1   
    21   20   21 1   
    22   20   23 1   
    23   20   25 1   
    24   21   22 2   
    25   21   29 1   
    26   23   26 1   
    27   23   27 1   
    28   23   28 1   
    29   29   30 1   
    30   29   37 1   
    31   30   31 1   
    32   30   33 1   
    33   30   38 1   
    34   31   32 2   
    35   31   41 1   
    36   33   34 1   
    37   33   39 1   
    38   33   40 1   
    39   34   35 1   
    40   34   36 1   
    41   41   42 1   
    42   41   45 1   
    43   42   43 1   
    44   42   46 1   
    45   42   47 1   
    46   43   44 2   
    47   43   48 1   
    48   48   49 1   
    49   48   56 1   
    50   49   50 1   
    51   49   52 1   
    52   49   57 1   
    53   50   51 2   
    54   50   62 1   
    55   52   53 1   
    56   52   58 1   
    57   52   59 1   
    58   53   54 1   
    59   53   55 2   
    60   54   60 1   
    61   54   61 1   
    62   62   63 1   
    63   62   66 1   
    64   63   64 1   
    65   63   67 1   
    66   63   68 1   
    67   64   65 2   
    68   64   69 1   
    69   69   70 1   
    70   69   76 1   
    71   70   71 1   
    72   70   73 1   
    73   70   77 1   
    74   71   72 2   
    75   71   83 1   
    76   73   74 1   
    77   73   75 1   
    78   73   78 1   
    79   74   80 1   
    80   74   81 1   
    81   74   82 1   
    82   75   79 1   
    83   83   84 1   
    84   83   91 1   
    85   84   85 1   
    86   84   87 1   
    87   84   92 1   
    88   85   86 2   
    89   85  102 1   
    90   87   88 1   
    91   87   89 1   
    92   87   93 1   
    93   88   90 1   
    94   88   94 1   
    95   88   95 1   
    96   89   96 1   
    97   89   97 1   
    98   89   98 1   
    99   90   99 1   
   100   90  100 1   
   101   90  101 1   
   102  102  103 1   
   103  102  110 1   
   104  103  104 1   
   105  103  106 1   
   106  103  111 1   
   107  104  105 2   
   108  104  114 1   
   109  106  107 1   
   110  106  112 1   
   111  106  113 1   
   112  107  108 1   
   113  107  109 1   
   114  114  115 1   
   115  114  125 1   
   116  115  116 1   
   117  115  118 1   
   118  115  126 1   
   119  116  117 2   
   120  116  134 1   
   121  118  119 1   
   122  118  127 1   
   123  118  128 1   
   124  119  120 ar  
   125  119  121 ar  
   126  120  122 ar  
   127  120  129 1   
   128  121  123 ar  
   129  121  130 1   
   130  122  124 ar  
   131  122  131 1   
   132  123  124 ar  
   133  123  132 1   
   134  124  133 1   
   135  134  135 1   
   136  134  140 1   
   137  135  136 1   
   138  135  138 1   
   139  135  141 1   
   140  136  137 2   
   141  136  148 1   
   142  138  139 1   
   143  138  142 1   
   144  138  143 1   
   145  139  140 1   
   146  139  144 1   
   147  139  145 1   
   148  140  146 1   
   149  140  147 1   
   150  148  149 1   
   151  148  157 1   
   152  149  150 1   
   153  149  152 1   
   154  149  158 1   
   155  150  151 2   
   156  150  163 1   
   157  152  153 1   
   158  152  159 1   
   159  152  160 1   
   160  153  154 1   
   161  153  161 1   
   162  153  162 1   
   163  154  155 1   
   164  154  156 1   
   165  163  164 1   
   166  163  168 1   
   167  164  165 1   
   168  164  166 1   
   169  164  167 1   
   170  170  171 1   
   171  170  172 1   
   172  173  174 1   
   173  173  175 1   
   174  176  177 1   
   175  176  178 1   
   176  179  180 1   
   177  179  181 1   
@<TRIPOS>SUBSTRUCTURE
     1 MOL         1 TEMP              0 ****  ****    0 ROOT
