@<TRIPOS>MOLECULE
MOL
  189   185     1     0     0
SMALL
resp


@<TRIPOS>ATOM
      1 C1         -1.0910    1.0030    7.2560 c3        1 MOL     -0.323817
      2 C2         -1.3270    1.2200    5.6890 c         1 MOL      0.680441
      3 O1         -0.4300    1.6580    4.9630 o         1 MOL     -0.582785
      4 H1         -1.4720    0.0240    7.5480 hc        1 MOL      0.085478
      5 H2         -0.0240    1.0580    7.4740 hc        1 MOL      0.085478
      6 H3         -1.6160    1.7780    7.8140 hc        1 MOL      0.085478
      7 N1         -2.5210    0.9230    5.1220 n         1 MOL     -0.652481
      8 C3         -2.7310    1.0650    3.6600 c3        1 MOL     -0.000300
      9 C4         -2.9090    2.5360    3.2580 c         1 MOL      0.759381
     10 O2         -3.7200    3.2730    3.8550 o         1 MOL     -0.578999
     11 C5         -3.9400    0.2250    3.1250 c3        1 MOL     -0.129279
     12 C6         -4.1900    0.3970    1.6150 c         1 MOL      0.626438
     13 O3         -5.4140    0.4800    1.2920 o         1 MOL     -0.672893
     14 O4         -3.2760    0.4730    0.7950 o         1 MOL     -0.672893
     15 H4         -3.2240    0.5540    5.7480 hn        1 MOL      0.352162
     16 H5         -1.8330    0.7460    3.1300 h1        1 MOL      0.051564
     17 H6         -4.8010    0.6040    3.6850 hc        1 MOL      0.044871
     18 H7         -3.7840   -0.8440    3.2880 hc        1 MOL      0.044871
     19 N2         -2.0300    2.9610    2.3230 n         1 MOL     -0.515582
     20 C7         -1.9470    4.3680    1.9090 c3        1 MOL      0.058878
     21 C8         -2.9210    4.7220    0.7720 c         1 MOL      0.496309
     22 O5         -3.4240    5.8570    0.8370 o         1 MOL     -0.611044
     23 C9         -0.4700    4.7380    1.5330 c3        1 MOL     -0.048255
     24 C10        -0.2000    6.2730    1.4620 c3        1 MOL      0.003568
     25 C11         1.1700    6.5140    0.7690 c3        1 MOL      0.135504
     26 C12         1.6220    7.9820    0.8450 c3        1 MOL     -0.078831
     27 N3          0.6050    9.0570    0.4640 n4        1 MOL     -0.302437
     28 H8         -1.4610    2.2490    1.8810 hn        1 MOL      0.306807
     29 H9         -2.3270    4.9380    2.7620 h1        1 MOL      0.060807
     30 H10        -0.2280    4.3290    0.5500 hc        1 MOL      0.058803
     31 H11         0.2030    4.2900    2.2590 hc        1 MOL      0.058803
     32 H12        -0.1820    6.7120    2.4620 hc        1 MOL     -0.007093
     33 H13        -0.9970    6.7840    0.9150 hc        1 MOL     -0.007093
     34 H14         1.0110    6.2240   -0.2700 hc        1 MOL      0.002121
     35 H15         1.9070    5.8190    1.1770 hc        1 MOL      0.002121
     36 H16         2.4440    7.9890    0.1390 hx        1 MOL      0.091899
     37 H17         2.0110    8.2060    1.8490 hx        1 MOL      0.091899
     38 H18        -0.3320    8.9920    0.8450 hn        1 MOL      0.314167
     39 H19         0.8130   10.0000    0.7290 hn        1 MOL      0.314167
     40 H20         0.4590    9.0360   -0.5310 hn        1 MOL      0.314167
     41 N4         -3.2300    3.8400   -0.1510 n         1 MOL     -0.201304
     42 C13        -3.8860    4.2560   -1.4370 c3        1 MOL      0.002298
     43 C14        -5.0080    3.3260   -1.8800 c         1 MOL      0.432441
     44 O6         -5.2640    3.1410   -3.0500 o         1 MOL     -0.468287
     45 C15        -2.8820    4.4430   -2.5560 c3        1 MOL     -0.095402
     46 C16        -2.1390    3.0840   -2.8570 c         1 MOL      0.692679
     47 O7         -1.3960    2.9480   -3.9010 o         1 MOL     -0.690295
     48 O8         -2.1250    2.1320   -2.0250 o         1 MOL     -0.690295
     49 H21        -2.7360    2.9620   -0.1390 hn        1 MOL      0.120092
     50 H22        -4.3350    5.2380   -1.2800 h1        1 MOL      0.071481
     51 H23        -2.1020    5.1660   -2.3220 hc        1 MOL      0.019132
     52 H24        -3.3660    4.8240   -3.4470 hc        1 MOL      0.019132
     53 N5         -5.7960    2.8060   -0.9410 n         1 MOL     -0.174462
     54 C17        -7.1660    2.3440   -1.0220 c3        1 MOL     -0.301458
     55 C18        -7.4820    1.0860   -1.8360 c         1 MOL      0.643188
     56 O9         -8.5120    1.0990   -2.4830 o         1 MOL     -0.584182
     57 H25        -5.4020    3.0000   -0.0420 hn        1 MOL      0.206708
     58 H26        -7.8010    3.1180   -1.4560 h1        1 MOL      0.119731
     59 H27        -7.4920    2.1230   -0.0070 h1        1 MOL      0.119731
     60 N6         -6.6460    0.0850   -1.7390 n         1 MOL     -0.343006
     61 C19        -6.6640   -1.2040   -2.5000 c3        1 MOL     -0.022563
     62 C20        -6.6170   -2.4190   -1.4880 c         1 MOL      0.379221
     63 O10        -6.8850   -3.5840   -1.8370 o         1 MOL     -0.520740
     64 C21        -5.5220   -1.1920   -3.5570 c3        1 MOL     -0.070063
     65 C22        -4.0540   -0.9700   -3.0160 c         1 MOL      0.663752
     66 O11        -3.7500   -1.4760   -1.9710 o         1 MOL     -0.676964
     67 O12        -3.2730   -0.2600   -3.6420 o         1 MOL     -0.676964
     68 H28        -5.8020    0.2540   -1.2110 hn        1 MOL      0.164065
     69 H29        -7.5570   -1.2650   -3.1230 h1        1 MOL      0.107636
     70 H30        -5.7210   -0.4590   -4.3400 hc        1 MOL      0.026127
     71 H31        -5.4010   -2.1430   -4.0620 hc        1 MOL      0.026127
     72 N7         -6.4930   -2.1420   -0.1810 n         1 MOL     -0.157969
     73 C23        -6.5620   -3.0310    0.8440 c3        1 MOL     -0.094911
     74 C24        -5.3790   -4.0280    0.9100 c         1 MOL      0.512842
     75 O13        -5.5120   -5.0620    1.5620 o         1 MOL     -0.578811
     76 H32        -6.2520   -1.1870    0.0880 hn        1 MOL      0.201646
     77 H33        -7.5180   -3.5430    0.8810 h1        1 MOL      0.072958
     78 H34        -6.4860   -2.3670    1.6960 h1        1 MOL      0.072958
     79 N8         -4.2200   -3.7650    0.3320 n         1 MOL     -0.215423
     80 C25        -3.0410   -4.6460    0.3270 c3        1 MOL     -0.111460
     81 C26        -1.7540   -3.8710    0.3760 c         1 MOL      0.683275
     82 O14        -1.7320   -2.7050    0.0650 o         1 MOL     -0.673142
     83 C27        -2.9110   -5.5790   -0.8490 c3        1 MOL      0.289253
     84 C28        -4.1950   -6.3670   -1.1360 c3        1 MOL     -0.346539
     85 O15        -2.6050   -4.9740   -2.0860 oh        1 MOL     -0.610319
     86 H35        -4.1040   -2.9530   -0.2440 hn        1 MOL      0.239314
     87 H36        -3.1470   -5.3310    1.1660 h1        1 MOL      0.084377
     88 H37        -2.1380   -6.3180   -0.6370 h1        1 MOL     -0.015175
     89 H38        -2.6990   -5.6080   -2.7980 ho        1 MOL      0.410436
     90 H39        -3.9680   -7.2300   -1.7590 hc        1 MOL      0.098677
     91 H40        -4.6500   -6.7490   -0.2200 hc        1 MOL      0.098677
     92 H41        -4.9640   -5.8130   -1.6740 hc        1 MOL      0.098677
     93 N9         -0.7940   -4.4240    1.0760 n         1 MOL     -0.559722
     94 C29         0.4460   -3.6260    1.3550 c3        1 MOL      0.319513
     95 C30         1.5960   -4.0660    0.3590 c         1 MOL      0.345620
     96 O16         2.0560   -5.2240    0.4060 o         1 MOL     -0.534176
     97 C31         1.0410   -3.8960    2.7270 c3        1 MOL     -0.050676
     98 C32        -0.0140   -3.7570    3.8890 c3        1 MOL     -0.122689
     99 C33         2.2150   -2.9520    3.1160 c3        1 MOL     -0.345757
    100 C34        -0.7740   -2.4470    3.9820 c3        1 MOL     -0.066870
    101 H42        -1.0300   -5.3040    1.5170 hn        1 MOL      0.313794
    102 H43         0.3640   -2.5440    1.3260 h1        1 MOL     -0.001232
    103 H44         1.3520   -4.9400    2.7290 hc        1 MOL      0.038667
    104 H45         0.5300   -3.6620    4.8290 hc        1 MOL      0.039518
    105 H46        -0.7500   -4.5580    3.9560 hc        1 MOL      0.039518
    106 H47         2.4870   -3.1150    4.1580 hc        1 MOL      0.103022
    107 H48         3.0890   -3.1650    2.4920 hc        1 MOL      0.103022
    108 H49         1.9590   -1.9000    3.0720 hc        1 MOL      0.103022
    109 H50        -1.2740   -2.2270    3.0410 hc        1 MOL      0.042682
    110 H51        -1.5740   -2.5660    4.7190 hc        1 MOL      0.042682
    111 H52        -0.0020   -1.6990    4.1570 hc        1 MOL      0.042682
    112 N10         2.0060   -3.1220   -0.4580 n         1 MOL     -0.163761
    113 C35         3.2290   -3.1830   -1.4140 c3        1 MOL     -0.156092
    114 C36         4.5310   -2.8890   -0.7740 c         1 MOL      0.409577
    115 O17         4.5660   -2.1670    0.1950 o         1 MOL     -0.183434
    116 C37         3.1280   -2.1330   -2.5760 c3        1 MOL      0.251933
    117 C38         1.9420   -2.3060   -3.5170 c3        1 MOL     -0.194192
    118 O18         3.0460   -0.7900   -2.0880 oh        1 MOL     -0.557187
    119 H53         1.5870   -2.2080   -0.4050 hn        1 MOL      0.231127
    120 H54         3.3590   -4.2000   -1.7760 h1        1 MOL      0.120601
    121 H55         4.0200   -2.2280   -3.1830 h1        1 MOL      0.007652
    122 H56         2.2490   -0.7300   -1.5720 ho        1 MOL      0.318161
    123 H57         1.9910   -3.3450   -3.8520 hc        1 MOL      0.054641
    124 H58         1.0630   -2.0690   -2.9220 hc        1 MOL      0.054641
    125 H59         1.9940   -1.7000   -4.4110 hc        1 MOL      0.054641
    126 N11         5.6610   -3.3740   -1.2000 n         1 MOL     -0.315240
    127 C39         6.9570   -3.0450   -0.6390 c3        1 MOL     -0.262709
    128 C40         7.1840   -1.5250   -0.3470 c         1 MOL      0.518750
    129 O19         7.6710   -1.1320    0.7120 o         1 MOL     -0.498907
    130 C41         8.0570   -3.4700   -1.5850 c3        1 MOL      0.389452
    131 C42         9.5620   -3.2760   -1.1270 c3        1 MOL     -0.487439
    132 O20         7.8460   -4.8190   -1.5760 oh        1 MOL     -0.565677
    133 H60         5.6220   -4.0500   -1.9500 hn        1 MOL      0.247514
    134 H61         7.1870   -3.5440    0.3030 h1        1 MOL      0.224023
    135 H62         7.9580   -3.0450   -2.5800 h1        1 MOL     -0.019793
    136 H63         7.9760   -5.0730   -2.4880 ho        1 MOL      0.386179
    137 H64        10.2930   -3.6220   -1.8670 hc        1 MOL      0.139230
    138 H65         9.7290   -2.2280   -0.8670 hc        1 MOL      0.139230
    139 H66         9.6920   -3.8510   -0.2120 hc        1 MOL      0.139230
    140 N12         6.6930   -0.6530   -1.2540 n         1 MOL     -0.557073
    141 C43         6.7680    0.9140   -1.0470 c3        1 MOL      0.009024
    142 C44         5.9170    1.3500    0.1680 c         1 MOL      0.446946
    143 O21         5.9580    2.5080    0.5560 o         1 MOL     -0.609052
    144 C45         6.4780    1.7550   -2.3560 c3        1 MOL     -0.339527
    145 C46         6.9680    3.1660   -2.2260 c3        1 MOL      0.005818
    146 C47         6.9560    3.9190   -3.4830 c3        1 MOL     -0.137098
    147 C48         7.3290    5.4020   -3.2340 c3        1 MOL     -0.158837
    148 N13         8.7450    5.4970   -2.6980 n4        1 MOL     -0.258193
    149 H67         6.0870   -1.0000   -1.9710 hn        1 MOL      0.343505
    150 H68         7.7640    1.1160   -0.6760 h1        1 MOL      0.130093
    151 H69         5.3930    1.7540   -2.5060 hc        1 MOL      0.155711
    152 H70         6.7540    1.2000   -3.2550 hc        1 MOL      0.155711
    153 H71         7.9670    3.1840   -1.7930 hc        1 MOL      0.073680
    154 H72         6.2560    3.6490   -1.5560 hc        1 MOL      0.073680
    155 H73         5.9390    3.9500   -3.8620 hc        1 MOL      0.092333
    156 H74         7.6660    3.5340   -4.2090 hc        1 MOL      0.092333
    157 H75         6.6460    5.8630   -2.5180 hx        1 MOL      0.154122
    158 H76         7.3420    5.9090   -4.2030 hx        1 MOL      0.154122
    159 H77         9.0380    6.4330   -2.4650 hn        1 MOL      0.281721
    160 H78         8.8410    4.9110   -1.8880 hn        1 MOL      0.281721
    161 H79         9.4750    5.1570   -3.3030 hn        1 MOL      0.281721
    162 N14         5.0660    0.5020    0.7980 n         1 MOL      0.055959
    163 C49         4.3210    0.7370    2.1040 c3        1 MOL     -0.040492
    164 C50         4.7500   -0.1240    3.2790 c         1 MOL      0.331618
    165 O22         4.6120    0.3740    4.4170 o         1 MOL     -0.508085
    166 C51         2.8700    0.4110    1.7690 c3        1 MOL     -0.019451
    167 C52         2.2850    1.3140    0.6180 c3        1 MOL     -0.133468
    168 C53         0.8790    0.8290    0.1340 c         1 MOL      0.614883
    169 O23        -0.1140    1.6260    0.1310 o         1 MOL     -0.702095
    170 O24         0.6800   -0.3120   -0.2780 o         1 MOL     -0.702095
    171 H80         5.0370   -0.4500    0.4610 hn        1 MOL     -0.116085
    172 H81         4.3370    1.7730    2.4520 h1        1 MOL      0.102961
    173 H82         2.2760    0.4200    2.6890 hc        1 MOL      0.081909
    174 H83         2.9600   -0.6040    1.3950 hc        1 MOL      0.081909
    175 H84         2.9710    1.3550   -0.2280 hc        1 MOL      0.041717
    176 H85         2.1710    2.3530    0.9220 hc        1 MOL      0.041717
    177 N15         5.3260   -1.2950    2.9340 n         1 MOL     -0.076431
    178 C54         5.7990   -2.3420    3.8960 c3        1 MOL     -0.126250
    179 H86         5.0060   -3.0740    4.0540 h1        1 MOL      0.070840
    180 H87         6.6770   -2.8410    3.4860 h1        1 MOL      0.070840
    181 H88         6.0560   -1.8740    4.8460 h1        1 MOL      0.070840
    182 H89         5.5030   -1.4590    1.9510 hn        1 MOL      0.062310
    183 Ca1        -1.6350   -0.2630   -1.3280 Ca        1 MOL      1.765246
    184 O25        -1.3540   -2.8410   -2.9460 oh        1 MOL     -0.810954
    185 H90        -1.7430   -3.6090   -2.5250 ho        1 MOL      0.386771
    186 H91        -1.7750   -2.8150   -3.8080 ho        1 MOL      0.386771
    187 O26        -0.0060    0.5410   -3.7290 oh        1 MOL     -0.810954
    188 H92        -0.6720    1.1790   -3.9590 ho        1 MOL      0.386771
    189 H93         0.8170    1.0140   -3.8020 ho        1 MOL      0.386771
@<TRIPOS>BOND
     1    1    2 1   
     2    1    4 1   
     3    1    5 1   
     4    1    6 1   
     5    2    3 2   
     6    2    7 1   
     7    7    8 1   
     8    7   15 1   
     9    8    9 1   
    10    8   11 1   
    11    8   16 1   
    12    9   10 2   
    13    9   19 1   
    14   11   12 1   
    15   11   17 1   
    16   11   18 1   
    17   12   13 1   
    18   12   14 1   
    19   19   20 1   
    20   19   28 1   
    21   20   21 1   
    22   20   23 1   
    23   20   29 1   
    24   21   22 2   
    25   21   41 1   
    26   23   24 1   
    27   23   30 1   
    28   23   31 1   
    29   24   25 1   
    30   24   32 1   
    31   24   33 1   
    32   25   26 1   
    33   25   34 1   
    34   25   35 1   
    35   26   27 1   
    36   26   36 1   
    37   26   37 1   
    38   27   38 1   
    39   27   39 1   
    40   27   40 1   
    41   41   42 1   
    42   41   49 1   
    43   42   43 1   
    44   42   45 1   
    45   42   50 1   
    46   43   44 2   
    47   43   53 1   
    48   45   46 1   
    49   45   51 1   
    50   45   52 1   
    51   46   47 1   
    52   46   48 1   
    53   53   54 1   
    54   53   57 1   
    55   54   55 1   
    56   54   58 1   
    57   54   59 1   
    58   55   56 2   
    59   55   60 1   
    60   60   61 1   
    61   60   68 1   
    62   61   62 1   
    63   61   64 1   
    64   61   69 1   
    65   62   63 2   
    66   62   72 1   
    67   64   65 1   
    68   64   70 1   
    69   64   71 1   
    70   65   66 1   
    71   65   67 1   
    72   72   73 1   
    73   72   76 1   
    74   73   74 1   
    75   73   77 1   
    76   73   78 1   
    77   74   75 2   
    78   74   79 1   
    79   79   80 1   
    80   79   86 1   
    81   80   81 1   
    82   80   83 1   
    83   80   87 1   
    84   81   82 2   
    85   81   93 1   
    86   83   84 1   
    87   83   85 1   
    88   83   88 1   
    89   84   90 1   
    90   84   91 1   
    91   84   92 1   
    92   85   89 1   
    93   93   94 1   
    94   93  101 1   
    95   94   95 1   
    96   94   97 1   
    97   94  102 1   
    98   95   96 2   
    99   95  112 1   
   100   97   98 1   
   101   97   99 1   
   102   97  103 1   
   103   98  100 1   
   104   98  104 1   
   105   98  105 1   
   106   99  106 1   
   107   99  107 1   
   108   99  108 1   
   109  100  109 1   
   110  100  110 1   
   111  100  111 1   
   112  112  113 1   
   113  112  119 1   
   114  113  114 1   
   115  113  116 1   
   116  113  120 1   
   117  114  115 2   
   118  114  126 1   
   119  116  117 1   
   120  116  118 1   
   121  116  121 1   
   122  117  123 1   
   123  117  124 1   
   124  117  125 1   
   125  118  122 1   
   126  126  127 1   
   127  126  133 1   
   128  127  128 1   
   129  127  130 1   
   130  127  134 1   
   131  128  129 2   
   132  128  140 1   
   133  130  131 1   
   134  130  132 1   
   135  130  135 1   
   136  131  137 1   
   137  131  138 1   
   138  131  139 1   
   139  132  136 1   
   140  140  141 1   
   141  140  149 1   
   142  141  142 1   
   143  141  144 1   
   144  141  150 1   
   145  142  143 2   
   146  142  162 1   
   147  144  145 1   
   148  144  151 1   
   149  144  152 1   
   150  145  146 1   
   151  145  153 1   
   152  145  154 1   
   153  146  147 1   
   154  146  155 1   
   155  146  156 1   
   156  147  148 1   
   157  147  157 1   
   158  147  158 1   
   159  148  159 1   
   160  148  160 1   
   161  148  161 1   
   162  162  163 1   
   163  162  171 1   
   164  163  164 1   
   165  163  166 1   
   166  163  172 1   
   167  164  165 2   
   168  164  177 1   
   169  166  167 1   
   170  166  173 1   
   171  166  174 1   
   172  167  168 1   
   173  167  175 1   
   174  167  176 1   
   175  168  169 1   
   176  168  170 1   
   177  177  178 1   
   178  177  182 1   
   179  178  179 1   
   180  178  180 1   
   181  178  181 1   
   182  184  185 1   
   183  184  186 1   
   184  187  188 1   
   185  187  189 1   
@<TRIPOS>SUBSTRUCTURE
     1 MOL         1 TEMP              0 ****  ****    0 ROOT
