@<TRIPOS>MOLECULE
MOL
  175   173     1     0     0
SMALL
resp


@<TRIPOS>ATOM
      1 C1          0.6880    4.6520    5.2140 c3        1 MOL     -0.326852
      2 C2         -0.0790    4.5510    3.8410 c         1 MOL      0.738588
      3 O1          0.5170    4.6760    2.7910 o         1 MOL     -0.571578
      4 H1          0.1420    5.3130    5.8860 hc        1 MOL      0.074805
      5 H2          0.7640    3.6610    5.6620 hc        1 MOL      0.074805
      6 H3          1.6880    5.0510    5.0440 hc        1 MOL      0.074805
      7 N1         -1.3670    4.3180    3.8860 n         1 MOL     -0.718504
      8 C3         -2.1030    3.9260    2.6610 c3        1 MOL      0.270587
      9 C4         -2.2990    5.0290    1.6110 c         1 MOL      0.788747
     10 O2         -2.5410    6.1760    1.9270 o         1 MOL     -0.603187
     11 C5         -3.4110    3.2820    2.9720 c3        1 MOL     -0.435985
     12 C6         -4.0540    2.5330    1.8110 c         1 MOL      0.795531
     13 O3         -3.3730    2.0310    0.8700 o         1 MOL     -0.691804
     14 O4         -5.3030    2.3180    1.8440 o         1 MOL     -0.691804
     15 H4         -1.7380    4.1360    4.8060 hn        1 MOL      0.344326
     16 H5         -1.5010    3.1790    2.1320 h1        1 MOL      0.039877
     17 H6         -4.0580    4.1190    3.2540 hc        1 MOL      0.092366
     18 H7         -3.2600    2.5270    3.7450 hc        1 MOL      0.092366
     19 N2         -2.2860    4.5790    0.3220 n         1 MOL     -0.901932
     20 C7         -2.3390    5.5010   -0.8560 c3        1 MOL      0.384135
     21 C8         -3.1900    4.9960   -1.9730 c         1 MOL      0.384193
     22 O5         -3.5820    5.7890   -2.8050 o         1 MOL     -0.568873
     23 C9         -0.9340    5.8090   -1.2150 c3        1 MOL     -0.353773
     24 H8         -1.9550    3.6450    0.1360 hn        1 MOL      0.514620
     25 H9         -2.7210    6.4900   -0.5780 h1        1 MOL      0.032391
     26 H10        -0.3330    4.9320   -0.9840 hc        1 MOL      0.084888
     27 H11        -0.8580    6.0480   -2.2760 hc        1 MOL      0.084888
     28 H12        -0.6900    6.6920   -0.6290 hc        1 MOL      0.084888
     29 N3         -3.6280    3.7080   -1.8960 n         1 MOL     -0.092450
     30 C10        -4.7650    3.2840   -2.8080 c3        1 MOL     -0.086428
     31 C11        -6.0530    2.6180   -2.2170 c         1 MOL      0.313977
     32 O6         -7.1000    2.4990   -2.8980 o         1 MOL     -0.537933
     33 C12        -4.2100    2.3040   -3.8090 c3        1 MOL     -0.029927
     34 C13        -3.2420    1.2310   -3.2130 c         1 MOL      0.518738
     35 O7         -2.2690    0.9030   -3.8670 o         1 MOL     -0.616331
     36 O8         -3.4590    0.7420   -2.0460 o         1 MOL     -0.616331
     37 H13        -3.2870    3.0490   -1.2130 hn        1 MOL      0.094154
     38 H14        -5.1110    4.1350   -3.3860 h1        1 MOL      0.119463
     39 H15        -3.7020    2.7830   -4.6450 hc        1 MOL      0.022316
     40 H16        -5.0250    1.7540   -4.2670 hc        1 MOL      0.022316
     41 N4         -6.0320    2.0870   -0.9610 n         1 MOL     -0.074752
     42 C14        -7.1510    1.2770   -0.3340 c3        1 MOL     -0.128220
     43 C15        -7.1870   -0.1960   -0.7990 c         1 MOL      0.482927
     44 O9         -8.2700   -0.7450   -0.6000 o         1 MOL     -0.613147
     45 H17        -5.2480    2.2480   -0.3380 hn        1 MOL      0.071080
     46 H18        -8.0540    1.7910   -0.6320 h1        1 MOL      0.091667
     47 H19        -7.1710    1.2880    0.7510 h1        1 MOL      0.091667
     48 N5         -6.1960   -0.7110   -1.5100 n         1 MOL     -0.152308
     49 C16        -6.2410   -2.0880   -2.0620 c3        1 MOL     -0.136152
     50 C17        -6.3580   -3.2130   -1.0470 c         1 MOL      0.547510
     51 O10        -6.3410   -4.3150   -1.4730 o         1 MOL     -0.525613
     52 C18        -5.0680   -2.2400   -2.9910 c3        1 MOL      0.014762
     53 C19        -3.6280   -2.3600   -2.3990 c         1 MOL      0.418144
     54 N6         -2.6910   -2.6800   -3.2190 n         1 MOL     -0.461230
     55 O11        -3.3780   -2.1600   -1.2220 o         1 MOL     -0.548148
     56 H20        -5.3180   -0.2170   -1.5230 hn        1 MOL      0.158573
     57 H21        -7.1240   -2.1820   -2.7020 h1        1 MOL      0.096823
     58 H22        -5.1720   -1.4730   -3.7560 hc        1 MOL      0.025904
     59 H23        -5.2310   -3.1670   -3.5500 hc        1 MOL      0.025904
     60 H24        -3.0290   -2.9540   -4.1350 hn        1 MOL      0.283862
     61 H25        -1.7360   -2.6530   -2.8990 hn        1 MOL      0.283862
     62 N7         -6.3640   -2.8250    0.2340 n         1 MOL     -0.207413
     63 C20        -6.4810   -3.8150    1.2830 c3        1 MOL     -0.346914
     64 C21        -5.1720   -4.3960    1.8210 c         1 MOL      0.634610
     65 O12        -5.1560   -5.1840    2.7620 o         1 MOL     -0.596460
     66 H26        -5.9910   -1.9410    0.5480 hn        1 MOL      0.207013
     67 H27        -7.0970   -4.6640    0.9870 h1        1 MOL      0.137355
     68 H28        -6.9420   -3.2790    2.1150 h1        1 MOL      0.137355
     69 N8         -3.9990   -3.9500    1.3190 n         1 MOL     -0.403939
     70 C22        -2.7040   -4.5820    1.5880 c3        1 MOL     -0.094666
     71 C23        -1.6030   -3.5580    1.5990 c         1 MOL      0.550619
     72 O13        -1.6930   -2.4910    0.9690 o         1 MOL     -0.545239
     73 C24        -2.3410   -5.6010    0.4810 c3        1 MOL      0.529921
     74 C25        -3.2150   -6.8680    0.5610 c3        1 MOL     -0.345449
     75 O14        -2.4760   -5.1480   -0.8400 oh        1 MOL     -0.606097
     76 H29        -3.9670   -3.2960    0.5490 hn        1 MOL      0.276182
     77 H30        -2.6790   -5.0990    2.5500 h1        1 MOL      0.093579
     78 H31        -1.3220   -5.9800    0.6280 h1        1 MOL     -0.060640
     79 H32        -2.1500   -4.2480   -0.8880 ho        1 MOL      0.357117
     80 H33        -3.3950   -7.1300    1.5950 hc        1 MOL      0.079876
     81 H34        -4.0970   -6.6320   -0.0400 hc        1 MOL      0.079876
     82 H35        -2.7440   -7.7980    0.2260 hc        1 MOL      0.079876
     83 N9         -0.4560   -3.7540    2.3080 n         1 MOL     -0.537949
     84 C26         0.6560   -2.8650    2.3420 c3        1 MOL      0.020417
     85 C27         1.4030   -3.0630    1.0290 c         1 MOL      0.820892
     86 O15         1.6610   -4.2550    0.7470 o         1 MOL     -0.608401
     87 C28         1.4930   -3.0680    3.6480 c3        1 MOL      0.173571
     88 C29         1.2380   -1.9380    4.5010 c3        1 MOL      0.107257
     89 C30         3.0740   -3.3030    3.4090 c3        1 MOL     -0.236318
     90 C31         1.9430   -1.9290    5.8260 c3        1 MOL     -0.284139
     91 H36        -0.3300   -4.5490    2.9270 hn        1 MOL      0.257010
     92 H37         0.2500   -1.8470    2.3440 h1        1 MOL     -0.036034
     93 H38         1.1560   -3.9980    4.1150 hc        1 MOL     -0.000935
     94 H39         0.2040   -1.9380    4.8480 hc        1 MOL     -0.000431
     95 H40         1.4320   -1.0310    3.9270 hc        1 MOL     -0.000431
     96 H41         3.4950   -3.7620    4.2930 hc        1 MOL      0.047791
     97 H42         3.1510   -4.0330    2.6100 hc        1 MOL      0.047791
     98 H43         3.5890   -2.3700    3.1850 hc        1 MOL      0.047791
     99 H44         1.5330   -1.0640    6.3430 hc        1 MOL      0.057885
    100 H45         1.7500   -2.8750    6.3360 hc        1 MOL      0.057885
    101 H46         3.0090   -1.8240    5.6210 hc        1 MOL      0.057885
    102 N10         1.8380   -2.0040    0.2840 n         1 MOL     -0.732675
    103 C32         2.6770   -2.1330   -0.9360 c3        1 MOL      0.168794
    104 C33         4.1630   -1.7180   -0.7050 c         1 MOL      0.536172
    105 O16         4.4160   -1.0110    0.2850 o         1 MOL     -0.462314
    106 C34         2.0600   -1.3430   -2.0460 c3        1 MOL     -0.159925
    107 C35         0.6050   -1.7390   -2.4890 c         1 MOL      0.676691
    108 O17        -0.3580   -1.4590   -1.7020 o         1 MOL     -0.657461
    109 O18         0.4280   -2.2210   -3.6560 o         1 MOL     -0.657461
    110 H47         1.6250   -1.0200    0.3770 hn        1 MOL      0.379197
    111 H48         2.6710   -3.1810   -1.2480 h1        1 MOL      0.038162
    112 H49         2.7670   -1.4310   -2.8620 hc        1 MOL      0.020433
    113 H50         2.0300   -0.2790   -1.7950 hc        1 MOL      0.020433
    114 N11         5.1160   -2.0090   -1.5990 n         1 MOL     -0.764054
    115 C36         6.5080   -1.5390   -1.3340 c3        1 MOL      0.623367
    116 C37         6.6770   -0.0700   -1.1550 c         1 MOL      0.210522
    117 O19         7.2720    0.2230   -0.1190 o         1 MOL     -0.483015
    118 C38         7.4550   -2.2750   -2.3680 c3        1 MOL     -0.449747
    119 C39         8.8410   -2.0740   -1.8330 ca        1 MOL      0.284798
    120 C40         9.3720   -2.8030   -0.7420 ca        1 MOL     -0.283193
    121 C41         9.7640   -1.2240   -2.5380 ca        1 MOL     -0.283193
    122 C42        10.6120   -2.4650   -0.2360 ca        1 MOL     -0.054566
    123 C43        11.0740   -0.9360   -2.1210 ca        1 MOL     -0.054566
    124 C44        11.4660   -1.5670   -0.9200 ca        1 MOL     -0.150711
    125 H51         4.8960   -2.4860   -2.4650 hn        1 MOL      0.361644
    126 H52         6.6820   -1.9570   -0.3510 h1        1 MOL      0.018405
    127 H53         7.3620   -1.9640   -3.4110 hc        1 MOL      0.113805
    128 H54         7.2760   -3.3470   -2.2410 hc        1 MOL      0.113805
    129 H55         8.8080   -3.5920   -0.2710 ha        1 MOL      0.139727
    130 H56         9.5540   -0.7310   -3.4860 ha        1 MOL      0.139727
    131 H57        11.0000   -2.9560    0.6430 ha        1 MOL      0.107946
    132 H58        11.7730   -0.2850   -2.6200 ha        1 MOL      0.107946
    133 H59        12.4860   -1.3900   -0.6020 ha        1 MOL      0.095384
    134 N12         6.1160    0.8630   -2.0150 n         1 MOL      0.030896
    135 C45         6.1520    2.2900   -1.9170 c3        1 MOL     -0.200910
    136 C46         5.5760    2.8890   -0.6910 c         1 MOL      0.340198
    137 O20         5.6500    4.0790   -0.3850 o         1 MOL     -0.526929
    138 C47         5.5570    2.8180   -3.2430 c3        1 MOL     -0.052572
    139 C48         5.7120    1.6650   -4.1460 c3        1 MOL     -0.028810
    140 C49         5.4000    0.5130   -3.2400 c3        1 MOL     -0.218812
    141 H60         7.2210    2.4850   -1.8450 h1        1 MOL      0.132979
    142 H61         4.5040    3.0670   -3.1650 hc        1 MOL      0.076277
    143 H62         6.0160    3.6660   -3.7450 hc        1 MOL      0.076277
    144 H63         4.9760    1.7880   -4.9400 hc        1 MOL      0.031946
    145 H64         6.7190    1.5080   -4.5260 hc        1 MOL      0.031946
    146 H65         4.3160    0.4790   -3.1010 h1        1 MOL      0.109316
    147 H66         5.8550   -0.3740   -3.6770 h1        1 MOL      0.109316
    148 N13         4.8460    2.1200    0.1060 n         1 MOL     -0.015296
    149 C50         4.2100    2.5470    1.3350 c3        1 MOL     -0.080114
    150 C51         4.9950    2.0850    2.4900 c         1 MOL      0.474458
    151 O21         5.2860    2.8500    3.4100 o         1 MOL     -0.558740
    152 C52         2.8180    1.8470    1.3590 c3        1 MOL      0.028175
    153 C53         1.9580    2.2630    0.2240 c3        1 MOL      0.082971
    154 C54         0.6140    1.6390    0.3420 c         1 MOL      0.631192
    155 O22        -0.3780    2.1110   -0.2250 o         1 MOL     -0.757576
    156 O23         0.3800    0.6240    1.0170 o         1 MOL     -0.757576
    157 H67         4.6120    1.2060   -0.2390 hn        1 MOL      0.136185
    158 H68         4.0210    3.6120    1.4690 h1        1 MOL      0.097838
    159 H69         2.3660    2.1670    2.2870 hc        1 MOL     -0.009150
    160 H70         2.9690    0.7670    1.3500 hc        1 MOL     -0.009150
    161 H71         2.4520    2.0410   -0.7330 hc        1 MOL      0.011877
    162 H72         1.7630    3.3370    0.1390 hc        1 MOL      0.011877
    163 N14         5.4850    0.8420    2.4600 n         1 MOL     -0.183469
    164 C55         6.3760    0.3140    3.4630 c3        1 MOL     -0.152283
    165 H73         7.2240   -0.1700    2.9780 h1        1 MOL      0.067478
    166 H74         6.7350    1.1260    4.0960 h1        1 MOL      0.067478
    167 H75         5.8440   -0.4150    4.0750 h1        1 MOL      0.067478
    168 H76         5.3180    0.2560    1.6430 hn        1 MOL      0.173291
    169 Ca1        -2.0340   -0.0720    0.0210 Ca        1 MOL      1.695072
    170 O24        -1.8670    0.0190    2.7120 oh        1 MOL     -0.764795
    171 H77        -0.9480    0.2960    2.6730 ho        1 MOL      0.381772
    172 H78        -2.0880    0.0570    3.6450 ho        1 MOL      0.381772
    173 O25        -4.7550   -0.4070    1.1920 oh        1 MOL     -0.764795
    174 H79        -5.0340    0.5090    1.1610 ho        1 MOL      0.381772
    175 H80        -5.2360   -0.7760    1.9390 ho        1 MOL      0.381772
@<TRIPOS>BOND
     1    1    2 1   
     2    1    4 1   
     3    1    5 1   
     4    1    6 1   
     5    2    3 2   
     6    2    7 1   
     7    7    8 1   
     8    7   15 1   
     9    8    9 1   
    10    8   11 1   
    11    8   16 1   
    12    9   10 2   
    13    9   19 1   
    14   11   12 1   
    15   11   17 1   
    16   11   18 1   
    17   12   13 1   
    18   12   14 1   
    19   19   20 1   
    20   19   24 1   
    21   20   21 1   
    22   20   23 1   
    23   20   25 1   
    24   21   22 2   
    25   21   29 1   
    26   23   26 1   
    27   23   27 1   
    28   23   28 1   
    29   29   30 1   
    30   29   37 1   
    31   30   31 1   
    32   30   33 1   
    33   30   38 1   
    34   31   32 2   
    35   31   41 1   
    36   33   34 1   
    37   33   39 1   
    38   33   40 1   
    39   34   35 1   
    40   34   36 1   
    41   41   42 1   
    42   41   45 1   
    43   42   43 1   
    44   42   46 1   
    45   42   47 1   
    46   43   44 2   
    47   43   48 1   
    48   48   49 1   
    49   48   56 1   
    50   49   50 1   
    51   49   52 1   
    52   49   57 1   
    53   50   51 2   
    54   50   62 1   
    55   52   53 1   
    56   52   58 1   
    57   52   59 1   
    58   53   54 1   
    59   53   55 2   
    60   54   60 1   
    61   54   61 1   
    62   62   63 1   
    63   62   66 1   
    64   63   64 1   
    65   63   67 1   
    66   63   68 1   
    67   64   65 2   
    68   64   69 1   
    69   69   70 1   
    70   69   76 1   
    71   70   71 1   
    72   70   73 1   
    73   70   77 1   
    74   71   72 2   
    75   71   83 1   
    76   73   74 1   
    77   73   75 1   
    78   73   78 1   
    79   74   80 1   
    80   74   81 1   
    81   74   82 1   
    82   75   79 1   
    83   83   84 1   
    84   83   91 1   
    85   84   85 1   
    86   84   87 1   
    87   84   92 1   
    88   85   86 2   
    89   85  102 1   
    90   87   88 1   
    91   87   89 1   
    92   87   93 1   
    93   88   90 1   
    94   88   94 1   
    95   88   95 1   
    96   89   96 1   
    97   89   97 1   
    98   89   98 1   
    99   90   99 1   
   100   90  100 1   
   101   90  101 1   
   102  102  103 1   
   103  102  110 1   
   104  103  104 1   
   105  103  106 1   
   106  103  111 1   
   107  104  105 2   
   108  104  114 1   
   109  106  107 1   
   110  106  112 1   
   111  106  113 1   
   112  107  108 1   
   113  107  109 1   
   114  114  115 1   
   115  114  125 1   
   116  115  116 1   
   117  115  118 1   
   118  115  126 1   
   119  116  117 2   
   120  116  134 1   
   121  118  119 1   
   122  118  127 1   
   123  118  128 1   
   124  119  120 ar  
   125  119  121 ar  
   126  120  122 ar  
   127  120  129 1   
   128  121  123 ar  
   129  121  130 1   
   130  122  124 ar  
   131  122  131 1   
   132  123  124 ar  
   133  123  132 1   
   134  124  133 1   
   135  134  135 1   
   136  134  140 1   
   137  135  136 1   
   138  135  138 1   
   139  135  141 1   
   140  136  137 2   
   141  136  148 1   
   142  138  139 1   
   143  138  142 1   
   144  138  143 1   
   145  139  140 1   
   146  139  144 1   
   147  139  145 1   
   148  140  146 1   
   149  140  147 1   
   150  148  149 1   
   151  148  157 1   
   152  149  150 1   
   153  149  152 1   
   154  149  158 1   
   155  150  151 2   
   156  150  163 1   
   157  152  153 1   
   158  152  159 1   
   159  152  160 1   
   160  153  154 1   
   161  153  161 1   
   162  153  162 1   
   163  154  155 1   
   164  154  156 1   
   165  163  164 1   
   166  163  168 1   
   167  164  165 1   
   168  164  166 1   
   169  164  167 1   
   170  170  171 1   
   171  170  172 1   
   172  173  174 1   
   173  173  175 1   
@<TRIPOS>SUBSTRUCTURE
     1 MOL         1 TEMP              0 ****  ****    0 ROOT
