@<TRIPOS>MOLECULE
MOL
  175   173     1     0     0
SMALL
resp


@<TRIPOS>ATOM
      1 C1          0.4190    3.6240    5.5080 c3        1 MOL     -0.335064
      2 C2         -0.2750    3.8090    4.1520 c         1 MOL      0.702236
      3 O1          0.3500    4.2420    3.1680 o         1 MOL     -0.551349
      4 H1          1.4810    3.4360    5.3490 hc        1 MOL      0.075741
      5 H2          0.2960    4.5270    6.1050 hc        1 MOL      0.075741
      6 H3         -0.0250    2.7790    6.0320 hc        1 MOL      0.075741
      7 N1         -1.5190    3.5170    4.0470 n         1 MOL     -0.589507
      8 C3         -2.2360    3.4490    2.7670 c3        1 MOL      0.095063
      9 C4         -2.3240    4.7770    2.0090 c         1 MOL      0.547691
     10 O2         -2.2090    5.8770    2.5600 o         1 MOL     -0.554527
     11 C5         -3.6200    2.8270    3.0240 c3        1 MOL     -0.058770
     12 C6         -4.4100    2.4800    1.7070 c         1 MOL      0.576384
     13 O3         -3.7210    2.0990    0.7300 o         1 MOL     -0.606740
     14 O4         -5.5870    2.8090    1.6510 o         1 MOL     -0.606740
     15 H4         -1.9300    3.0310    4.8220 hn        1 MOL      0.296037
     16 H5         -1.6950    2.7450    2.1210 h1        1 MOL      0.145912
     17 H6         -4.2440    3.4100    3.7050 hc        1 MOL     -0.012637
     18 H7         -3.4820    1.8920    3.5820 hc        1 MOL     -0.012637
     19 N2         -2.4970    4.6260    0.6940 n         1 MOL     -0.370950
     20 C7         -2.9650    5.6650   -0.1970 c3        1 MOL      0.151244
     21 C8         -3.7820    5.1580   -1.3750 c         1 MOL      0.444798
     22 O5         -4.2380    6.0830   -2.0890 o         1 MOL     -0.582895
     23 C9         -1.6910    6.4310   -0.7380 c3        1 MOL     -0.231823
     24 H8         -2.3850    3.6950    0.3390 hn        1 MOL      0.210777
     25 H9         -3.5200    6.4220    0.3480 h1        1 MOL      0.041227
     26 H10        -1.8060    7.2850   -1.4050 hc        1 MOL      0.061242
     27 H11        -1.1350    6.7130    0.1460 hc        1 MOL      0.061242
     28 H12        -1.0690    5.7100   -1.2670 hc        1 MOL      0.061242
     29 N3         -4.0480    3.8480   -1.5360 n         1 MOL     -0.089232
     30 C10        -4.9690    3.3630   -2.5110 c3        1 MOL     -0.194705
     31 C11        -6.0590    2.2790   -2.1620 c         1 MOL      0.391805
     32 O6         -6.7340    1.8540   -3.1260 o         1 MOL     -0.505325
     33 C12        -4.1290    2.7650   -3.6460 c3        1 MOL     -0.014277
     34 C13        -3.3870    1.4350   -3.3020 c         1 MOL      0.570481
     35 O7         -2.7470    0.9130   -4.2440 o         1 MOL     -0.657936
     36 O8         -3.4880    0.8690   -2.1870 o         1 MOL     -0.657936
     37 H13        -3.7890    3.1980   -0.8150 hn        1 MOL      0.105682
     38 H14        -5.3860    4.2200   -3.0410 h1        1 MOL      0.117413
     39 H15        -3.3560    3.5150   -3.8080 hc        1 MOL      0.022306
     40 H16        -4.6080    2.5730   -4.5990 hc        1 MOL      0.022306
     41 N4         -6.2880    1.9110   -0.8670 n         1 MOL     -0.049560
     42 C14        -7.4280    1.1740   -0.3670 c3        1 MOL     -0.302604
     43 C15        -7.5100   -0.2990   -0.7630 c         1 MOL      0.654720
     44 O9         -8.4140   -1.0490   -0.3190 o         1 MOL     -0.636481
     45 H17        -5.6550    2.3180   -0.1920 hn        1 MOL      0.136676
     46 H18        -8.3160    1.6120   -0.8290 h1        1 MOL      0.123462
     47 H19        -7.3490    1.1840    0.7110 h1        1 MOL      0.123462
     48 N5         -6.4070   -0.7990   -1.3620 n         1 MOL     -0.437599
     49 C16        -6.3280   -2.0070   -2.0980 c3        1 MOL      0.422290
     50 C17        -6.1300   -3.2250   -1.1390 c         1 MOL      0.289106
     51 O10        -5.9530   -4.2850   -1.6490 o         1 MOL     -0.467336
     52 C18        -5.1510   -1.9780   -3.1330 c3        1 MOL     -0.467379
     53 C19        -3.7020   -2.1180   -2.6750 c         1 MOL      0.833865
     54 N6         -2.7760   -2.0800   -3.5710 n         1 MOL     -0.695060
     55 O11        -3.3330   -2.3230   -1.5350 o         1 MOL     -0.694033
     56 H20        -5.8650   -0.0300   -1.7380 hn        1 MOL      0.093116
     57 H21        -7.2530   -2.1790   -2.6440 h1        1 MOL      0.012539
     58 H22        -5.2440   -1.0260   -3.6590 hc        1 MOL      0.121896
     59 H23        -5.2700   -2.7940   -3.8350 hc        1 MOL      0.121896
     60 H24        -3.0570   -1.8990   -4.5210 hn        1 MOL      0.341892
     61 H25        -1.7780   -2.1220   -3.4300 hn        1 MOL      0.341892
     62 N7         -6.2230   -3.0710    0.2170 n         1 MOL     -0.271661
     63 C20        -6.2150   -4.2190    1.1520 c3        1 MOL     -0.113941
     64 C21        -4.8630   -4.7170    1.6640 c         1 MOL      0.401256
     65 O12        -4.8250   -5.5410    2.6220 o         1 MOL     -0.563869
     66 H26        -6.7580   -2.2840    0.5680 hn        1 MOL      0.282065
     67 H27        -6.6890   -5.0810    0.6860 h1        1 MOL      0.097369
     68 H28        -6.9290   -3.9810    1.9460 h1        1 MOL      0.097369
     69 N8         -3.7710   -4.2180    1.1070 n         1 MOL     -0.182213
     70 C22        -2.3730   -4.7220    1.3070 c3        1 MOL     -0.102413
     71 C23        -1.3900   -3.5780    1.3780 c         1 MOL      0.553798
     72 O13        -1.5930   -2.4590    0.8310 o         1 MOL     -0.570003
     73 C24        -1.9580   -5.5470    0.0830 c3        1 MOL      0.469264
     74 C25        -2.7170   -6.8630    0.0010 c3        1 MOL     -0.586819
     75 O14        -2.2660   -5.0060   -1.2260 oh        1 MOL     -0.575509
     76 H29        -3.8170   -3.4840    0.4150 hn        1 MOL      0.181460
     77 H30        -2.3390   -5.3770    2.1780 h1        1 MOL      0.091378
     78 H31        -0.8830   -5.6740    0.1700 h1        1 MOL     -0.029890
     79 H32        -2.1340   -4.0600   -1.2420 ho        1 MOL      0.367466
     80 H33        -2.8450   -7.3190    0.9830 hc        1 MOL      0.152046
     81 H34        -3.7020   -6.6660   -0.4200 hc        1 MOL      0.152046
     82 H35        -2.2060   -7.5380   -0.6890 hc        1 MOL      0.152046
     83 N9         -0.2110   -3.8570    2.0090 n         1 MOL     -0.555638
     84 C26         0.9860   -2.9610    1.9020 c3        1 MOL     -0.104071
     85 C27         1.6340   -3.1210    0.5140 c         1 MOL      0.655116
     86 O15         1.8510   -4.2680    0.0790 o         1 MOL     -0.590607
     87 C28         1.9330   -3.3280    3.1020 c3        1 MOL      0.021835
     88 C29         1.2740   -3.1660    4.5210 c3        1 MOL      0.381236
     89 C30         3.2620   -2.5050    2.9740 c3        1 MOL     -0.056734
     90 C31         2.1730   -3.6360    5.6760 c3        1 MOL     -0.379791
     91 H36        -0.0810   -4.8480    2.1680 hn        1 MOL      0.304922
     92 H37         0.6150   -1.9390    2.0310 h1        1 MOL      0.141058
     93 H38         2.2840   -4.3610    3.1100 hc        1 MOL      0.020700
     94 H39         0.4200   -3.8380    4.5740 hc        1 MOL     -0.083069
     95 H40         0.8520   -2.1720    4.6930 hc        1 MOL     -0.083069
     96 H41         3.0570   -1.4400    3.0960 hc        1 MOL     -0.005490
     97 H42         3.9640   -2.7430    3.7640 hc        1 MOL     -0.005490
     98 H43         3.7760   -2.6900    2.0280 hc        1 MOL     -0.005490
     99 H44         2.4270   -4.6950    5.6390 hc        1 MOL      0.078364
    100 H45         3.0690   -3.0090    5.6790 hc        1 MOL      0.078364
    101 H46         1.7260   -3.2400    6.5810 hc        1 MOL      0.078364
    102 N10         2.0070   -2.0150   -0.1380 n         1 MOL     -0.341667
    103 C32         2.8000   -1.8110   -1.3300 c3        1 MOL      0.025705
    104 C33         4.1990   -1.3720   -0.8730 c         1 MOL      0.482318
    105 O16         4.3180   -0.7270    0.1620 o         1 MOL     -0.283180
    106 C34         2.1260   -0.8650   -2.3110 c3        1 MOL     -0.146986
    107 C35         0.6170   -1.1740   -2.4430 c         1 MOL      0.761411
    108 O17        -0.2100   -0.5790   -1.7310 o         1 MOL     -0.677345
    109 O18         0.2460   -1.8670   -3.4180 o         1 MOL     -0.677345
    110 H47         1.6830   -1.1450    0.2750 hn        1 MOL      0.166499
    111 H48         2.9420   -2.7340   -1.8950 h1        1 MOL      0.057508
    112 H49         2.6800   -0.9040   -3.2500 hc        1 MOL      0.022701
    113 H50         2.2560    0.1230   -1.8730 hc        1 MOL      0.022701
    114 N11         5.2590   -1.5750   -1.7030 n         1 MOL     -0.718784
    115 C36         6.6490   -1.1710   -1.3920 c3        1 MOL      0.426982
    116 C37         6.8350    0.3380   -1.1190 c         1 MOL      0.235278
    117 O19         7.4090    0.7090   -0.0900 o         1 MOL     -0.508511
    118 C38         7.5910   -1.6950   -2.5120 c3        1 MOL     -0.437057
    119 C39         9.0580   -1.5120   -2.0610 ca        1 MOL      0.315984
    120 C40         9.5150   -2.3140   -0.9820 ca        1 MOL     -0.301537
    121 C41         9.9700   -0.7510   -2.8380 ca        1 MOL     -0.301537
    122 C42        10.8610   -2.1980   -0.5550 ca        1 MOL      0.015853
    123 C43        11.2660   -0.6020   -2.4010 ca        1 MOL      0.015853
    124 C44        11.7660   -1.3310   -1.3110 ca        1 MOL     -0.277648
    125 H51         5.1060   -2.0780   -2.5580 hn        1 MOL      0.360808
    126 H52         6.9190   -1.6050   -0.4290 h1        1 MOL      0.050563
    127 H53         7.3180   -1.1880   -3.4380 hc        1 MOL      0.118142
    128 H54         7.3730   -2.7660   -2.5740 hc        1 MOL      0.118142
    129 H55         8.8260   -2.9560   -0.4620 ha        1 MOL      0.146090
    130 H56         9.7020   -0.2560   -3.7520 ha        1 MOL      0.146090
    131 H57        11.1810   -2.7040    0.3450 ha        1 MOL      0.091539
    132 H58        11.9700    0.0470   -2.9040 ha        1 MOL      0.091539
    133 H59        12.7610   -1.1210   -0.9140 ha        1 MOL      0.141847
    134 N12         6.2710    1.2570   -1.8710 n         1 MOL     -0.031151
    135 C45         6.2790    2.6850   -1.4480 c3        1 MOL      0.014513
    136 C46         5.5630    2.9850   -0.1730 c         1 MOL      0.336712
    137 O20         5.7510    4.0310    0.3800 o         1 MOL     -0.494083
    138 C47         5.5690    3.3540   -2.6030 c3        1 MOL      0.009573
    139 C48         5.8440    2.4690   -3.8700 c3        1 MOL     -0.171018
    140 C49         5.6460    1.1290   -3.1700 c3        1 MOL     -0.073924
    141 H60         7.3310    2.9670   -1.3600 h1        1 MOL      0.080598
    142 H61         4.5230    3.4780   -2.3340 hc        1 MOL      0.032330
    143 H62         5.9860    4.3460   -2.7440 hc        1 MOL      0.032330
    144 H63         5.1280    2.6250   -4.6830 hc        1 MOL      0.068653
    145 H64         6.8770    2.5990   -4.2010 hc        1 MOL      0.068653
    146 H65         4.5750    1.0910   -2.9770 h1        1 MOL      0.075160
    147 H66         5.9340    0.2370   -3.7380 h1        1 MOL      0.075160
    148 N13         4.6010    2.1360    0.3080 n         1 MOL     -0.152537
    149 C50         4.0020    2.2420    1.6500 c3        1 MOL     -0.088990
    150 C51         4.8090    1.5200    2.7340 c         1 MOL      0.439275
    151 O21         4.7090    1.8380    3.9340 o         1 MOL     -0.565035
    152 C52         2.5770    1.6260    1.5410 c3        1 MOL      0.156439
    153 C53         1.7110    2.2690    0.4800 c3        1 MOL     -0.274835
    154 C54         0.2810    1.6260    0.5210 c         1 MOL      0.606821
    155 O22        -0.8070    2.1190    0.0820 o         1 MOL     -0.710264
    156 O23         0.1970    0.5530    1.1330 o         1 MOL     -0.710264
    157 H67         4.1600    1.4280   -0.2650 hn        1 MOL      0.194218
    158 H68         3.8860    3.2850    1.9720 h1        1 MOL      0.109306
    159 H69         2.1070    1.9820    2.4670 hc        1 MOL     -0.003969
    160 H70         2.5490    0.5420    1.5010 hc        1 MOL     -0.003969
    161 H71         2.1320    2.1020   -0.5200 hc        1 MOL      0.085535
    162 H72         1.7500    3.3350    0.6970 hc        1 MOL      0.085535
    163 N14         5.6360    0.5200    2.3730 n         1 MOL     -0.059349
    164 C55         6.5350   -0.1870    3.2780 c3        1 MOL     -0.167228
    165 H73         7.5400   -0.2020    2.8550 h1        1 MOL      0.065524
    166 H74         6.5570    0.3230    4.2410 h1        1 MOL      0.065524
    167 H75         6.1840   -1.2090    3.4150 h1        1 MOL      0.065524
    168 H76         5.5480    0.1250    1.4470 hn        1 MOL      0.058431
    169 Ca1        -2.1840   -0.0230   -0.2080 Ca        1 MOL      1.696881
    170 O24        -1.5640   -0.2910    2.8560 oh        1 MOL     -0.777266
    171 H77        -1.6100   -0.0430    3.7860 ho        1 MOL      0.379682
    172 H78        -0.6670   -0.0580    2.6020 ho        1 MOL      0.379682
    173 O25        -4.0880   -0.7960    1.5460 oh        1 MOL     -0.777266
    174 H79        -4.8210   -1.3190    1.8820 ho        1 MOL      0.379682
    175 H80        -3.5930   -0.5400    2.3300 ho        1 MOL      0.379682
@<TRIPOS>BOND
     1    1    2 1   
     2    1    4 1   
     3    1    5 1   
     4    1    6 1   
     5    2    3 2   
     6    2    7 1   
     7    7    8 1   
     8    7   15 1   
     9    8    9 1   
    10    8   11 1   
    11    8   16 1   
    12    9   10 2   
    13    9   19 1   
    14   11   12 1   
    15   11   17 1   
    16   11   18 1   
    17   12   13 1   
    18   12   14 1   
    19   19   20 1   
    20   19   24 1   
    21   20   21 1   
    22   20   23 1   
    23   20   25 1   
    24   21   22 2   
    25   21   29 1   
    26   23   26 1   
    27   23   27 1   
    28   23   28 1   
    29   29   30 1   
    30   29   37 1   
    31   30   31 1   
    32   30   33 1   
    33   30   38 1   
    34   31   32 2   
    35   31   41 1   
    36   33   34 1   
    37   33   39 1   
    38   33   40 1   
    39   34   35 1   
    40   34   36 1   
    41   41   42 1   
    42   41   45 1   
    43   42   43 1   
    44   42   46 1   
    45   42   47 1   
    46   43   44 2   
    47   43   48 1   
    48   48   49 1   
    49   48   56 1   
    50   49   50 1   
    51   49   52 1   
    52   49   57 1   
    53   50   51 2   
    54   50   62 1   
    55   52   53 1   
    56   52   58 1   
    57   52   59 1   
    58   53   54 1   
    59   53   55 2   
    60   54   60 1   
    61   54   61 1   
    62   62   63 1   
    63   62   66 1   
    64   63   64 1   
    65   63   67 1   
    66   63   68 1   
    67   64   65 2   
    68   64   69 1   
    69   69   70 1   
    70   69   76 1   
    71   70   71 1   
    72   70   73 1   
    73   70   77 1   
    74   71   72 2   
    75   71   83 1   
    76   73   74 1   
    77   73   75 1   
    78   73   78 1   
    79   74   80 1   
    80   74   81 1   
    81   74   82 1   
    82   75   79 1   
    83   83   84 1   
    84   83   91 1   
    85   84   85 1   
    86   84   87 1   
    87   84   92 1   
    88   85   86 2   
    89   85  102 1   
    90   87   88 1   
    91   87   89 1   
    92   87   93 1   
    93   88   90 1   
    94   88   94 1   
    95   88   95 1   
    96   89   96 1   
    97   89   97 1   
    98   89   98 1   
    99   90   99 1   
   100   90  100 1   
   101   90  101 1   
   102  102  103 1   
   103  102  110 1   
   104  103  104 1   
   105  103  106 1   
   106  103  111 1   
   107  104  105 2   
   108  104  114 1   
   109  106  107 1   
   110  106  112 1   
   111  106  113 1   
   112  107  108 1   
   113  107  109 1   
   114  114  115 1   
   115  114  125 1   
   116  115  116 1   
   117  115  118 1   
   118  115  126 1   
   119  116  117 2   
   120  116  134 1   
   121  118  119 1   
   122  118  127 1   
   123  118  128 1   
   124  119  120 ar  
   125  119  121 ar  
   126  120  122 ar  
   127  120  129 1   
   128  121  123 ar  
   129  121  130 1   
   130  122  124 ar  
   131  122  131 1   
   132  123  124 ar  
   133  123  132 1   
   134  124  133 1   
   135  134  135 1   
   136  134  140 1   
   137  135  136 1   
   138  135  138 1   
   139  135  141 1   
   140  136  137 2   
   141  136  148 1   
   142  138  139 1   
   143  138  142 1   
   144  138  143 1   
   145  139  140 1   
   146  139  144 1   
   147  139  145 1   
   148  140  146 1   
   149  140  147 1   
   150  148  149 1   
   151  148  157 1   
   152  149  150 1   
   153  149  152 1   
   154  149  158 1   
   155  150  151 2   
   156  150  163 1   
   157  152  153 1   
   158  152  159 1   
   159  152  160 1   
   160  153  154 1   
   161  153  161 1   
   162  153  162 1   
   163  154  155 1   
   164  154  156 1   
   165  163  164 1   
   166  163  168 1   
   167  164  165 1   
   168  164  166 1   
   169  164  167 1   
   170  170  171 1   
   171  170  172 1   
   172  173  174 1   
   173  173  175 1   
@<TRIPOS>SUBSTRUCTURE
     1 MOL         1 TEMP              0 ****  ****    0 ROOT
