@<TRIPOS>MOLECULE
MOL
  179   176     1     0     0
SMALL
resp


@<TRIPOS>ATOM
      1 C1          1.2190    4.3640    3.6050 c3        1 MOL     -0.195255
      2 C2          0.4050    3.6980    2.5050 c         1 MOL      0.673451
      3 O1          0.8460    3.6190    1.3320 o         1 MOL     -0.581010
      4 H1          0.9760    3.9060    4.5630 hc        1 MOL      0.050380
      5 H2          2.2820    4.2350    3.4000 hc        1 MOL      0.050380
      6 H3          0.9820    5.4270    3.6400 hc        1 MOL      0.050380
      7 N1         -0.7730    3.1430    2.8590 n         1 MOL     -0.669365
      8 C3         -1.7090    2.5340    1.9490 c3        1 MOL      0.101226
      9 C4         -2.6600    3.6090    1.2830 c         1 MOL      0.574237
     10 O2         -3.8520    3.6130    1.6960 o         1 MOL     -0.508553
     11 C5         -2.5160    1.4670    2.6250 c3        1 MOL     -0.021511
     12 C6         -3.3780    0.5760    1.6880 c         1 MOL      0.518963
     13 O3         -4.3600    0.0360    2.2050 o         1 MOL     -0.578091
     14 O4         -3.0220    0.5300    0.4650 o         1 MOL     -0.578091
     15 H4         -1.1330    3.1430    3.8090 hn        1 MOL      0.338947
     16 H5         -1.1010    2.0720    1.1710 h1        1 MOL      0.050373
     17 H6         -3.1140    1.9300    3.4050 hc        1 MOL      0.009263
     18 H7         -1.8430    0.7990    3.1770 hc        1 MOL      0.009263
     19 N2         -2.1100    4.4320    0.3890 n         1 MOL     -0.466635
     20 C7         -2.8750    5.4780   -0.2640 c3        1 MOL     -0.056362
     21 C8         -4.0580    4.9310   -1.0270 c         1 MOL      0.393548
     22 O5         -5.1700    5.4230   -0.9210 o         1 MOL     -0.511416
     23 C9         -1.9960    6.3120   -1.2440 c3        1 MOL     -0.200864
     24 C10        -0.8840    7.2170   -0.6240 c3        1 MOL      0.107864
     25 C11        -1.2730    8.1770    0.4300 c3        1 MOL     -0.056906
     26 C12        -2.3060    9.1210   -0.1010 c3        1 MOL     -0.064357
     27 N3         -2.7580   10.1020    0.9070 n4        1 MOL     -0.124211
     28 H8         -1.1560    4.2360    0.0950 hn        1 MOL      0.357592
     29 H9         -3.2850    6.1150    0.5230 h1        1 MOL      0.107032
     30 H10        -2.6220    6.9260   -1.8840 hc        1 MOL      0.075401
     31 H11        -1.5890    5.5890   -1.9440 hc        1 MOL      0.075401
     32 H12        -0.4060    7.7930   -1.4230 hc        1 MOL      0.023882
     33 H13        -0.0430    6.7040   -0.1470 hc        1 MOL      0.023882
     34 H14        -0.3460    8.7050    0.6700 hc        1 MOL      0.033236
     35 H15        -1.5220    7.6360    1.3380 hc        1 MOL      0.033236
     36 H16        -3.1380    8.4760   -0.3920 hx        1 MOL      0.096100
     37 H17        -1.8450    9.6030   -0.9650 hx        1 MOL      0.096100
     38 H18        -3.3190    9.6970    1.6440 hn        1 MOL      0.271006
     39 H19        -1.9500   10.3990    1.4320 hn        1 MOL      0.271006
     40 H20        -3.1230   10.9990    0.6250 hn        1 MOL      0.271006
     41 N4         -3.8620    3.8290   -1.7810 n         1 MOL     -0.242127
     42 C13        -4.8290    3.1320   -2.6110 c3        1 MOL      0.014831
     43 C14        -5.9260    2.4340   -1.8090 c         1 MOL      0.431182
     44 O6         -7.1560    2.5860   -2.0760 o         1 MOL     -0.557467
     45 C15        -4.2030    2.1290   -3.5620 c3        1 MOL     -0.326550
     46 C16        -3.2180    1.2480   -2.7220 c         1 MOL      0.732286
     47 O7         -3.3020   -0.0240   -2.6210 o         1 MOL     -0.729672
     48 O8         -2.1960    1.7120   -2.1640 o         1 MOL     -0.729672
     49 H21        -2.9350    3.4150   -1.7450 hn        1 MOL      0.253951
     50 H22        -5.3550    3.9700   -3.0640 h1        1 MOL      0.082784
     51 H23        -3.6190    2.6680   -4.3150 hc        1 MOL      0.104268
     52 H24        -4.9550    1.5270   -4.0780 hc        1 MOL      0.104268
     53 N5         -5.5770    1.7850   -0.6420 n         1 MOL      0.024501
     54 C17        -6.5390    1.2770    0.3050 c3        1 MOL     -0.200196
     55 C18        -6.6930   -0.2290    0.2240 c         1 MOL      0.549644
     56 O9         -7.7150   -0.6810    0.7920 o         1 MOL     -0.571687
     57 H25        -4.5920    1.6860   -0.4490 hn        1 MOL      0.058958
     58 H26        -7.5410    1.7020    0.2760 h1        1 MOL      0.118049
     59 H27        -6.0640    1.5580    1.2390 h1        1 MOL      0.118049
     60 N6         -5.7990   -1.0150   -0.4600 n         1 MOL     -0.204841
     61 C19        -5.9600   -2.4700   -0.7470 c3        1 MOL      0.007189
     62 C20        -5.6410   -3.3440    0.5500 c         1 MOL      0.373915
     63 O10        -5.8130   -4.5420    0.4690 o         1 MOL     -0.515280
     64 C21        -5.1800   -2.9350   -1.9430 c3        1 MOL     -0.179197
     65 C22        -3.6770   -3.1130   -1.5980 c         1 MOL      0.451909
     66 N7         -2.9090   -3.5150   -2.5510 n         1 MOL     -0.612745
     67 O11        -3.1650   -2.8060   -0.5710 o         1 MOL     -0.250112
     68 H28        -4.9020   -0.6140   -0.6980 hn        1 MOL     -0.069283
     69 H29        -7.0240   -2.5870   -0.9590 h1        1 MOL      0.092440
     70 H30        -5.3000   -2.2790   -2.8160 hc        1 MOL      0.083242
     71 H31        -5.4690   -3.9330   -2.2580 hc        1 MOL      0.083242
     72 H32        -3.3600   -3.8730   -3.3830 hn        1 MOL      0.303895
     73 H33        -1.9210   -3.7050   -2.4690 hn        1 MOL      0.303895
     74 N8         -5.1740   -2.6980    1.6360 n         1 MOL     -0.076286
     75 C23        -4.9880   -3.3590    2.8900 c3        1 MOL     -0.315889
     76 C24        -3.5910   -4.0570    3.0970 c         1 MOL      0.527465
     77 O12        -3.3030   -4.6160    4.1420 o         1 MOL     -0.560085
     78 H34        -5.0110   -1.7020    1.5690 hn        1 MOL      0.218629
     79 H35        -5.6960   -4.1810    2.9690 h1        1 MOL      0.137071
     80 H36        -5.1140   -2.6560    3.7140 h1        1 MOL      0.137071
     81 N9         -2.6750   -3.8520    2.1160 n         1 MOL     -0.030832
     82 C25        -1.2500   -4.2410    2.2590 c3        1 MOL     -0.309041
     83 C26        -0.2860   -3.1560    1.6940 c         1 MOL      0.920896
     84 O13        -0.7400   -2.2370    0.9490 o         1 MOL     -0.841000
     85 C27        -0.9140   -5.6840    1.7830 c3        1 MOL      0.016049
     86 C28        -1.2400   -5.9800    0.3580 ca        1 MOL      0.018875
     87 C29        -2.4600   -6.5900    0.1260 ca        1 MOL     -0.192760
     88 C30        -0.3570   -5.6760   -0.6940 ca        1 MOL     -0.192760
     89 C31        -2.8970   -6.8670   -1.2320 ca        1 MOL     -0.215502
     90 C32        -0.7410   -5.8980   -2.0380 ca        1 MOL     -0.215502
     91 C33        -2.0160   -6.4720   -2.3120 ca        1 MOL      0.296067
     92 O14        -2.3940   -6.6570   -3.6050 oh        1 MOL     -0.551671
     93 H37        -3.0770   -3.4200    1.2950 hn        1 MOL      0.017611
     94 H38        -0.9010   -4.1700    3.2820 h1        1 MOL      0.098500
     95 H39        -1.3850   -6.4110    2.4390 hc        1 MOL      0.047908
     96 H40         0.1360   -5.9190    1.9290 hc        1 MOL      0.047908
     97 H41        -3.1420   -6.7830    0.9410 ha        1 MOL      0.161128
     98 H42         0.6300   -5.2880   -0.5250 ha        1 MOL      0.161128
     99 H43        -3.7470   -7.4880   -1.4570 ha        1 MOL      0.135720
    100 H44        -0.0780   -5.7600   -2.8820 ha        1 MOL      0.135720
    101 H45        -3.3200   -6.8890   -3.7040 ho        1 MOL      0.409481
    102 N10         0.9260   -3.0100    2.2240 n         1 MOL     -0.444149
    103 C34         1.9880   -2.1680    1.7770 c3        1 MOL     -0.201081
    104 C35         3.2410   -2.9520    1.1880 c         1 MOL      0.311901
    105 O15         3.5120   -4.0760    1.6070 o         1 MOL     -0.505639
    106 C36         2.3620   -1.1190    2.8840 c3        1 MOL      0.175595
    107 C37         3.1500   -1.7140    4.0550 c3        1 MOL     -0.128212
    108 C38         1.0720   -0.2310    3.3740 c3        1 MOL     -0.236657
    109 C39         3.8220   -0.7520    4.9850 c3        1 MOL     -0.203025
    110 H46         1.1920   -3.6170    2.9910 hn        1 MOL      0.284806
    111 H47         1.6880   -1.5850    0.9030 h1        1 MOL      0.197364
    112 H48         3.1180   -0.5000    2.4190 hc        1 MOL     -0.079979
    113 H49         3.9630   -2.3050    3.6380 hc        1 MOL      0.078849
    114 H50         2.5560   -2.4030    4.6470 hc        1 MOL      0.078849
    115 H51         1.4030    0.4350    4.1610 hc        1 MOL      0.080002
    116 H52         0.6600    0.2990    2.5170 hc        1 MOL      0.080002
    117 H53         0.2960   -0.9000    3.7670 hc        1 MOL      0.080002
    118 H54         3.1410   -0.4150    5.7690 hc        1 MOL      0.057531
    119 H55         4.7400   -1.2060    5.3790 hc        1 MOL      0.057531
    120 H56         4.0420    0.1870    4.4800 hc        1 MOL      0.057531
    121 N11         4.0300   -2.4200    0.2220 n         1 MOL     -0.040212
    122 C40         5.2030   -2.9900   -0.3690 c3        1 MOL     -0.033011
    123 C41         6.3190   -2.0710   -0.0770 c         1 MOL      0.515296
    124 O16         6.1570   -0.9950    0.5410 o         1 MOL     -0.468887
    125 C42         4.9260   -3.1060   -1.8990 c3        1 MOL     -0.207396
    126 O17         4.5340   -1.8600   -2.4190 oh        1 MOL     -0.515112
    127 H57         3.5890   -1.7180   -0.3610 hn        1 MOL      0.209752
    128 H58         5.2650   -3.9810    0.0930 h1        1 MOL      0.089874
    129 H59         4.0980   -3.8070   -2.0080 h1        1 MOL      0.123875
    130 H60         5.7290   -3.6620   -2.3720 h1        1 MOL      0.123875
    131 H61         4.5050   -2.0330   -3.3600 ho        1 MOL      0.407991
    132 N12         7.5730   -2.2380   -0.5570 n         1 MOL     -0.500656
    133 C43         8.6640   -1.4520   -0.0220 c3        1 MOL      0.127173
    134 C44         8.6860   -0.0360   -0.6550 c         1 MOL      0.438941
    135 O18         9.0900    0.9990   -0.1030 o         1 MOL     -0.533378
    136 C45        10.0490   -2.0500   -0.1080 c3        1 MOL     -0.129798
    137 H62         7.7760   -2.9780   -1.2170 hn        1 MOL      0.278034
    138 H63         8.4430   -1.3360    1.0380 h1        1 MOL      0.096244
    139 H64        10.1640   -3.1140    0.1180 hc        1 MOL      0.049360
    140 H65        10.5200   -1.7900   -1.0600 hc        1 MOL      0.049360
    141 H66        10.6640   -1.5490    0.6310 hc        1 MOL      0.049360
    142 N13         8.1500    0.1480   -1.8580 n         1 MOL     -0.302176
    143 C46         7.9450    1.4710   -2.5430 c3        1 MOL      0.039645
    144 C47         6.8210    2.2780   -1.8550 c         1 MOL      0.397250
    145 O19         6.9660    3.4700   -1.7510 o         1 MOL     -0.496719
    146 C48         7.7010    1.2620   -4.0450 c3        1 MOL     -0.233263
    147 H67         7.8970   -0.6760   -2.3910 hn        1 MOL      0.203635
    148 H68         8.8230    2.1070   -2.4860 h1        1 MOL      0.112659
    149 H69         7.8130    2.2050   -4.5740 hc        1 MOL      0.070410
    150 H70         8.4720    0.6410   -4.4920 hc        1 MOL      0.070410
    151 H71         6.7050    0.8510   -4.2140 hc        1 MOL      0.070410
    152 N14         5.7820    1.6580   -1.2830 n         1 MOL     -0.118358
    153 C49         4.7880    2.4120   -0.5160 c3        1 MOL     -0.242273
    154 C50         5.2560    2.9780    0.8190 c         1 MOL      0.540653
    155 O20         4.9330    4.0770    1.1930 o         1 MOL     -0.539096
    156 C51         3.5350    1.4850   -0.1420 c3        1 MOL      0.011261
    157 C52         2.6970    1.2640   -1.3960 c3        1 MOL      0.224997
    158 C53         1.5320    0.4120   -1.1140 c         1 MOL      0.665720
    159 O21         1.5390   -0.8180   -1.4120 o         1 MOL     -0.756013
    160 O22         0.4790    0.9320   -0.6150 o         1 MOL     -0.756013
    161 H72         5.7280    0.6620   -1.4130 hn        1 MOL      0.195164
    162 H73         4.4480    3.2880   -1.0690 h1        1 MOL      0.118153
    163 H74         2.9890    1.9870    0.6640 hc        1 MOL      0.043996
    164 H75         3.9190    0.5290    0.2140 hc        1 MOL      0.043996
    165 H76         3.3660    0.8170   -2.1290 hc        1 MOL     -0.085029
    166 H77         2.3610    2.1670   -1.8910 hc        1 MOL     -0.085029
    167 N15         6.1310    2.1510    1.4470 n         1 MOL     -0.117983
    168 C54         6.8740    2.5100    2.6600 c3        1 MOL     -0.328421
    169 H78         7.1820    1.6030    3.1780 h1        1 MOL      0.121374
    170 H79         7.7560    3.0900    2.3880 h1        1 MOL      0.121374
    171 H80         6.2350    3.1040    3.3150 h1        1 MOL      0.121374
    172 H81         6.2170    1.2580    0.9910 hn        1 MOL      0.152126
    173 Ca1        -1.3330   -0.7860   -1.0190 Ca        1 MOL      1.736273
    174 O23        -0.5040   -0.4230   -3.6090 oh        1 MOL     -0.816436
    175 H82        -0.9420   -0.4160   -4.4610 ho        1 MOL      0.405091
    176 H83         0.0610    0.3420   -3.6270 ho        1 MOL      0.405091
    177 O24        -0.1420   -2.9130   -2.2660 oh        1 MOL     -0.816436
    178 H84        -0.0270   -3.1810   -3.1700 ho        1 MOL      0.405091
    179 H85         0.7240   -2.6300   -1.9800 ho        1 MOL      0.405091
@<TRIPOS>BOND
     1    1    2 1   
     2    1    4 1   
     3    1    5 1   
     4    1    6 1   
     5    2    3 2   
     6    2    7 1   
     7    7    8 1   
     8    7   15 1   
     9    8    9 1   
    10    8   11 1   
    11    8   16 1   
    12    9   10 2   
    13    9   19 1   
    14   11   12 1   
    15   11   17 1   
    16   11   18 1   
    17   12   13 1   
    18   12   14 1   
    19   19   20 1   
    20   19   28 1   
    21   20   21 1   
    22   20   23 1   
    23   20   29 1   
    24   21   22 2   
    25   21   41 1   
    26   23   24 1   
    27   23   30 1   
    28   23   31 1   
    29   24   25 1   
    30   24   32 1   
    31   24   33 1   
    32   25   26 1   
    33   25   34 1   
    34   25   35 1   
    35   26   27 1   
    36   26   36 1   
    37   26   37 1   
    38   27   38 1   
    39   27   39 1   
    40   27   40 1   
    41   41   42 1   
    42   41   49 1   
    43   42   43 1   
    44   42   45 1   
    45   42   50 1   
    46   43   44 2   
    47   43   53 1   
    48   45   46 1   
    49   45   51 1   
    50   45   52 1   
    51   46   47 1   
    52   46   48 1   
    53   53   54 1   
    54   53   57 1   
    55   54   55 1   
    56   54   58 1   
    57   54   59 1   
    58   55   56 2   
    59   55   60 1   
    60   60   61 1   
    61   60   68 1   
    62   61   62 1   
    63   61   64 1   
    64   61   69 1   
    65   62   63 2   
    66   62   74 1   
    67   64   65 1   
    68   64   70 1   
    69   64   71 1   
    70   65   66 1   
    71   65   67 2   
    72   66   72 1   
    73   66   73 1   
    74   74   75 1   
    75   74   78 1   
    76   75   76 1   
    77   75   79 1   
    78   75   80 1   
    79   76   77 2   
    80   76   81 1   
    81   81   82 1   
    82   81   93 1   
    83   82   83 1   
    84   82   85 1   
    85   82   94 1   
    86   83   84 2   
    87   83  102 1   
    88   85   86 1   
    89   85   95 1   
    90   85   96 1   
    91   86   87 ar  
    92   86   88 ar  
    93   87   89 ar  
    94   87   97 1   
    95   88   90 ar  
    96   88   98 1   
    97   89   91 ar  
    98   89   99 1   
    99   90   91 ar  
   100   90  100 1   
   101   91   92 1   
   102   92  101 1   
   103  102  103 1   
   104  102  110 1   
   105  103  104 1   
   106  103  106 1   
   107  103  111 1   
   108  104  105 2   
   109  104  121 1   
   110  106  107 1   
   111  106  108 1   
   112  106  112 1   
   113  107  109 1   
   114  107  113 1   
   115  107  114 1   
   116  108  115 1   
   117  108  116 1   
   118  108  117 1   
   119  109  118 1   
   120  109  119 1   
   121  109  120 1   
   122  121  122 1   
   123  121  127 1   
   124  122  123 1   
   125  122  125 1   
   126  122  128 1   
   127  123  124 2   
   128  123  132 1   
   129  125  126 1   
   130  125  129 1   
   131  125  130 1   
   132  126  131 1   
   133  132  133 1   
   134  132  137 1   
   135  133  134 1   
   136  133  136 1   
   137  133  138 1   
   138  134  135 2   
   139  134  142 1   
   140  136  139 1   
   141  136  140 1   
   142  136  141 1   
   143  142  143 1   
   144  142  147 1   
   145  143  144 1   
   146  143  146 1   
   147  143  148 1   
   148  144  145 2   
   149  144  152 1   
   150  146  149 1   
   151  146  150 1   
   152  146  151 1   
   153  152  153 1   
   154  152  161 1   
   155  153  154 1   
   156  153  156 1   
   157  153  162 1   
   158  154  155 2   
   159  154  167 1   
   160  156  157 1   
   161  156  163 1   
   162  156  164 1   
   163  157  158 1   
   164  157  165 1   
   165  157  166 1   
   166  158  159 1   
   167  158  160 1   
   168  167  168 1   
   169  167  172 1   
   170  168  169 1   
   171  168  170 1   
   172  168  171 1   
   173  174  175 1   
   174  174  176 1   
   175  177  178 1   
   176  177  179 1   
@<TRIPOS>SUBSTRUCTURE
     1 MOL         1 TEMP              0 ****  ****    0 ROOT
