@<TRIPOS>MOLECULE
MOL
  189   185     1     0     0
SMALL
resp


@<TRIPOS>ATOM
      1 C1         -0.2650    1.0400    6.6660 c3        1 MOL     -0.193706
      2 C2         -0.3630    0.8680    5.1440 c         1 MOL      0.678468
      3 O1          0.5570    1.1990    4.4040 o         1 MOL     -0.611263
      4 H1         -0.4210    0.0770    7.1510 hc        1 MOL      0.052637
      5 H2          0.7220    1.4220    6.9260 hc        1 MOL      0.052637
      6 H3         -1.0270    1.7440    7.0020 hc        1 MOL      0.052637
      7 N1         -1.6030    0.6760    4.6330 n         1 MOL     -0.544823
      8 C3         -2.0320    0.8770    3.2300 c3        1 MOL      0.149003
      9 C4         -2.2680    2.3920    2.9900 c         1 MOL      0.506644
     10 O2         -3.1260    3.0640    3.5330 o         1 MOL     -0.552099
     11 C5         -3.2760   -0.0130    2.9860 c3        1 MOL     -0.503540
     12 C6         -3.9960    0.0750    1.6890 c         1 MOL      0.905006
     13 O3         -5.0990   -0.4720    1.4680 o         1 MOL     -0.649621
     14 O4         -3.4690    0.8290    0.8320 o         1 MOL     -0.649621
     15 H4         -2.3170    0.3630    5.2700 hn        1 MOL      0.304422
     16 H5         -1.2680    0.4390    2.5960 h1        1 MOL     -0.020160
     17 H6         -4.0030    0.2720    3.7470 hc        1 MOL      0.117045
     18 H7         -2.9350   -1.0330    3.1460 hc        1 MOL      0.117045
     19 N2         -1.4610    2.9030    2.1070 n         1 MOL     -0.113810
     20 C7         -1.4510    4.3180    1.8240 c3        1 MOL     -0.184582
     21 C8         -2.5500    4.8820    0.9890 c         1 MOL      0.627585
     22 O5         -2.8600    6.0420    1.0870 o         1 MOL     -0.575055
     23 C9         -0.0880    4.7130    1.2870 c3        1 MOL      0.036562
     24 C10         0.1150    4.8510   -0.3320 c3        1 MOL     -0.221129
     25 C11         1.4790    5.4940   -0.6720 c3        1 MOL      0.097501
     26 C12         1.6090    6.9780   -0.3090 c3        1 MOL     -0.020409
     27 N3          2.9030    7.4120   -0.7750 n4        1 MOL     -0.324880
     28 H8         -0.7770    2.2600    1.7370 hn        1 MOL      0.215534
     29 H9         -1.5850    4.8110    2.7840 h1        1 MOL      0.107570
     30 H10         0.6600    3.9910    1.6030 hc        1 MOL      0.016198
     31 H11         0.2110    5.6830    1.6820 hc        1 MOL      0.016198
     32 H12        -0.6390    5.5230   -0.7290 hc        1 MOL      0.057763
     33 H13         0.1130    3.8540   -0.7790 hc        1 MOL      0.057763
     34 H14         1.5540    5.4660   -1.7560 hc        1 MOL     -0.000278
     35 H15         2.2650    4.8230   -0.3200 hc        1 MOL     -0.000278
     36 H16         1.4090    7.1220    0.7550 hx        1 MOL      0.120677
     37 H17         0.8460    7.5790   -0.7880 hx        1 MOL      0.120677
     38 H18         2.9940    7.4990   -1.7760 hn        1 MOL      0.313863
     39 H19         3.1830    8.3410   -0.5010 hn        1 MOL      0.313863
     40 H20         3.7090    6.9030   -0.4510 hn        1 MOL      0.313863
     41 N4         -3.2220    4.0480    0.0950 n         1 MOL     -0.354278
     42 C13        -4.2300    4.4250   -0.9160 c3        1 MOL     -0.043421
     43 C14        -5.6010    3.6230   -0.9680 c         1 MOL      0.557592
     44 O6         -6.4790    4.1110   -1.6330 o         1 MOL     -0.513607
     45 C15        -3.6470    4.3040   -2.2990 c3        1 MOL     -0.174734
     46 C16        -2.8680    3.0240   -2.6690 c         1 MOL      0.760657
     47 O7         -2.7580    2.0460   -1.9080 o         1 MOL     -0.712421
     48 O8         -2.4260    2.9190   -3.8310 o         1 MOL     -0.712421
     49 H21        -3.0080    3.0740    0.2840 hn        1 MOL      0.115838
     50 H22        -4.5430    5.4590   -0.8130 h1        1 MOL      0.116405
     51 H23        -2.9560    5.1400   -2.3530 hc        1 MOL      0.046907
     52 H24        -4.3900    4.4060   -3.0970 hc        1 MOL      0.046907
     53 N5         -5.7460    2.5920   -0.0610 n         1 MOL     -0.360376
     54 C17        -6.9960    2.0210    0.2800 c3        1 MOL     -0.077336
     55 C18        -7.4830    0.8410   -0.6470 c         1 MOL      0.483316
     56 O9         -8.6250    0.7740   -1.1500 o         1 MOL     -0.578737
     57 H25        -4.9730    2.2790    0.5140 hn        1 MOL      0.277930
     58 H26        -7.8020    2.7600    0.3190 h1        1 MOL      0.068463
     59 H27        -6.8590    1.6910    1.3150 h1        1 MOL      0.068463
     60 N6         -6.5730   -0.0690   -0.9350 n         1 MOL     -0.075323
     61 C19        -6.8730   -1.2180   -1.8180 c3        1 MOL     -0.094997
     62 C20        -6.9360   -2.5780   -1.0290 c         1 MOL      0.303464
     63 O10        -7.3780   -3.6170   -1.6540 o         1 MOL     -0.494894
     64 C21        -5.7740   -1.2440   -2.8530 c3        1 MOL     -0.059916
     65 C22        -4.2740   -1.3550   -2.4740 c         1 MOL      0.570453
     66 O11        -3.4370   -0.9540   -3.2480 o         1 MOL     -0.643497
     67 O12        -3.9200   -1.6290   -1.3530 o         1 MOL     -0.643497
     68 H28        -5.7340   -0.1420   -0.3840 hn        1 MOL     -0.030945
     69 H29        -7.7530   -1.1210   -2.4410 h1        1 MOL      0.151064
     70 H30        -5.8400   -0.3740   -3.5080 hc        1 MOL      0.050843
     71 H31        -6.0720   -1.9490   -3.6350 hc        1 MOL      0.050843
     72 N7         -6.5670   -2.5140    0.2690 n         1 MOL     -0.071494
     73 C23        -6.5300   -3.6210    1.2100 c3        1 MOL     -0.182204
     74 C24        -5.3020   -4.4560    1.0880 c         1 MOL      0.538801
     75 O13        -5.3710   -5.7050    1.1750 o         1 MOL     -0.547020
     76 H32        -6.4710   -1.5820    0.6320 hn        1 MOL      0.190339
     77 H33        -7.3820   -4.2470    0.9470 h1        1 MOL      0.094211
     78 H34        -6.6110   -3.2170    2.2150 h1        1 MOL      0.094211
     79 N8         -4.2070   -3.7800    0.5920 n         1 MOL     -0.358987
     80 C25        -2.9250   -4.3640    0.2040 c3        1 MOL      0.006364
     81 C26        -1.7000   -3.4030    0.3730 c         1 MOL      0.438555
     82 O14        -1.8040   -2.2240    0.3430 o         1 MOL     -0.588541
     83 C27        -2.8930   -4.9940   -1.2010 c3        1 MOL      0.721743
     84 C28        -3.6780   -6.3090   -1.2300 c3        1 MOL     -0.387582
     85 O15        -3.3380   -4.0710   -2.1270 oh        1 MOL     -0.757084
     86 H35        -4.3990   -2.7970    0.4320 hn        1 MOL      0.191790
     87 H36        -2.7380   -5.2300    0.8400 h1        1 MOL      0.021842
     88 H37        -1.8390   -5.2060   -1.3260 h1        1 MOL     -0.149726
     89 H38        -3.4910   -3.2220   -1.6920 ho        1 MOL      0.502209
     90 H39        -3.2820   -6.8830   -0.3970 hc        1 MOL      0.084116
     91 H40        -4.7390   -6.0780   -1.2750 hc        1 MOL      0.084116
     92 H41        -3.3470   -6.8180   -2.1400 hc        1 MOL      0.084116
     93 N9         -0.5540   -3.9830    0.5820 n         1 MOL     -0.495023
     94 C29         0.6730   -3.2260    0.9090 c3        1 MOL     -0.033892
     95 C30         1.7810   -3.6010    0.0070 c         1 MOL      0.634914
     96 O16         2.1640   -4.7790   -0.1600 o         1 MOL     -0.547767
     97 C31         1.0780   -3.4420    2.4050 c3        1 MOL     -0.005903
     98 C32         0.0290   -2.5570    3.2590 c3        1 MOL      0.022387
     99 C33         2.4910   -3.0580    2.7100 c3        1 MOL     -0.324428
    100 C34         0.1120   -2.7690    4.8070 c3        1 MOL     -0.134409
    101 H42        -0.4670   -4.9880    0.6220 hn        1 MOL      0.318117
    102 H43         0.5080   -2.1540    0.7740 h1        1 MOL      0.102961
    103 H44         0.9590   -4.4880    2.6620 hc        1 MOL      0.056313
    104 H45        -0.9580   -2.8330    2.8940 hc        1 MOL      0.054838
    105 H46         0.0920   -1.4710    3.1190 hc        1 MOL      0.054838
    106 H47         3.2230   -3.4740    2.0080 hc        1 MOL      0.081578
    107 H48         2.5210   -1.9720    2.7410 hc        1 MOL      0.081578
    108 H49         2.6840   -3.3110    3.7530 hc        1 MOL      0.081578
    109 H50        -0.1110   -3.7360    5.2500 hc        1 MOL      0.033090
    110 H51         1.0400   -2.3670    5.2070 hc        1 MOL      0.033090
    111 H52        -0.7990   -2.2780    5.1470 hc        1 MOL      0.033090
    112 N10         2.2790   -2.5940   -0.7550 n         1 MOL     -0.468648
    113 C35         3.4380   -2.6870   -1.6540 c3        1 MOL      0.078639
    114 C36         4.7700   -2.2760   -1.0130 c         1 MOL      0.279627
    115 O17         4.7730   -1.7640    0.1210 o         1 MOL     -0.241213
    116 C37         3.3280   -1.7900   -2.9370 c3        1 MOL      0.434461
    117 C38         2.4220   -2.4510   -3.9310 c3        1 MOL     -0.384305
    118 O18         2.9140   -0.4510   -2.5620 oh        1 MOL     -0.723069
    119 H53         1.9070   -1.6730   -0.5680 hn        1 MOL      0.334120
    120 H54         3.5030   -3.7230   -1.9960 h1        1 MOL      0.069880
    121 H55         4.3050   -1.6960   -3.4070 h1        1 MOL     -0.052613
    122 H56         2.3140   -0.4120   -1.8130 ho        1 MOL      0.430316
    123 H57         2.9430   -3.3770   -4.2030 hc        1 MOL      0.106907
    124 H58         1.4480   -2.6090   -3.4690 hc        1 MOL      0.106907
    125 H59         2.3280   -1.8130   -4.8150 hc        1 MOL      0.106907
    126 N11         5.9580   -2.5860   -1.5950 n         1 MOL     -0.307360
    127 C39         7.3050   -2.3960   -1.0270 c3        1 MOL      0.019994
    128 C40         7.4380   -1.0650   -0.3410 c         1 MOL      0.201481
    129 O19         7.8020   -1.0600    0.8720 o         1 MOL     -0.423172
    130 C41         8.3420   -2.4290   -2.1000 c3        1 MOL      0.257520
    131 C42         9.7520   -2.0170   -1.6300 c3        1 MOL     -0.457916
    132 O20         8.4110   -3.8350   -2.5510 oh        1 MOL     -0.600568
    133 H60         5.9110   -3.0720   -2.4750 hn        1 MOL      0.239289
    134 H61         7.6560   -3.2270   -0.4210 h1        1 MOL      0.161647
    135 H62         7.9890   -1.7340   -2.8560 h1        1 MOL     -0.012058
    136 H63         9.0850   -3.9530   -3.2260 ho        1 MOL      0.407933
    137 H64         9.8580   -1.0110   -1.2340 hc        1 MOL      0.145882
    138 H65        10.0630   -2.8470   -1.0070 hc        1 MOL      0.145882
    139 H66        10.4300   -1.9540   -2.4840 hc        1 MOL      0.145882
    140 N12         7.0870    0.0900   -0.9640 n         1 MOL     -0.168579
    141 C43         7.1770    1.4040   -0.3600 c3        1 MOL     -0.188351
    142 C44         6.2460    1.7570    0.7780 c         1 MOL      0.413122
    143 O21         6.4050    2.8160    1.4470 o         1 MOL     -0.538620
    144 C45         6.9160    2.4430   -1.4740 c3        1 MOL     -0.070232
    145 C46         5.4410    2.3870   -1.8780 c3        1 MOL      0.066726
    146 C47         5.1350    3.3380   -3.0010 c3        1 MOL      0.036327
    147 C48         3.6590    3.1260   -3.5140 c3        1 MOL     -0.183737
    148 N13         3.5120    1.7920   -4.1960 n4        1 MOL     -0.206631
    149 H67         6.7370    0.0270   -1.9100 hn        1 MOL      0.192191
    150 H68         8.2110    1.5340   -0.0350 h1        1 MOL      0.184555
    151 H69         7.6390    2.2690   -2.2790 hc        1 MOL      0.054628
    152 H70         7.2520    3.4400   -1.1960 hc        1 MOL      0.054628
    153 H71         4.7870    2.7450   -1.0760 hc        1 MOL     -0.004262
    154 H72         5.1780    1.3800   -2.1970 hc        1 MOL     -0.004262
    155 H73         5.9660    3.2190   -3.7030 hc        1 MOL      0.008647
    156 H74         5.1680    4.3860   -2.6730 hc        1 MOL      0.008647
    157 H75         3.4770    3.9690   -4.1720 hx        1 MOL      0.120519
    158 H76         3.0220    3.2400   -2.6300 hx        1 MOL      0.120519
    159 H77         3.6120    0.9750   -3.6200 hn        1 MOL      0.291578
    160 H78         2.6080    1.6700   -4.6350 hn        1 MOL      0.291578
    161 H79         4.2410    1.7440   -4.8920 hn        1 MOL      0.291578
    162 N14         5.2870    0.8690    1.0850 n         1 MOL     -0.008698
    163 C49         4.3240    0.9190    2.2200 c3        1 MOL     -0.228992
    164 C50         4.7250   -0.0450    3.3760 c         1 MOL      0.568538
    165 O22         4.4410    0.2280    4.5780 o         1 MOL     -0.532124
    166 C51         2.8940    0.6000    1.5880 c3        1 MOL     -0.030059
    167 C52         2.3090    1.4730    0.4830 c3        1 MOL      0.086053
    168 C53         0.9710    0.9380   -0.0250 c         1 MOL      0.668209
    169 O23         1.0120   -0.0750   -0.7230 o         1 MOL     -0.734430
    170 O24        -0.1300    1.4020    0.2840 o         1 MOL     -0.734430
    171 H80         5.4010   -0.0120    0.6000 hn        1 MOL     -0.025676
    172 H81         4.4530    1.8850    2.6960 h1        1 MOL      0.143595
    173 H82         2.1770    0.7500    2.3950 hc        1 MOL      0.064228
    174 H83         2.8690   -0.3980    1.1650 hc        1 MOL      0.064228
    175 H84         3.0390    1.4390   -0.3310 hc        1 MOL     -0.029913
    176 H85         2.2350    2.5340    0.7080 hc        1 MOL     -0.029913
    177 N15         5.5640   -1.0760    3.0980 n         1 MOL     -0.253915
    178 C54         6.1350   -1.9310    4.1670 c3        1 MOL     -0.252343
    179 H86         5.4030   -2.6840    4.4590 h1        1 MOL      0.116699
    180 H87         7.0350   -2.4230    3.7970 h1        1 MOL      0.116699
    181 H88         6.3850   -1.3150    5.0300 h1        1 MOL      0.116699
    182 H89         5.7490   -1.3050    2.1310 hn        1 MOL      0.214906
    183 Ca1        -1.8120   -0.0870   -1.0300 Ca        1 MOL      1.742226
    184 O25        -0.7430    0.9120   -3.3740 oh        1 MOL     -0.814148
    185 H90        -1.3950    1.6060   -3.2740 ho        1 MOL      0.368104
    186 H91        -0.1190    1.2590   -4.0180 ho        1 MOL      0.368104
    187 O26        -0.8770   -1.9800   -2.8030 oh        1 MOL     -0.814148
    188 H92        -0.3010   -2.3000   -3.4890 ho        1 MOL      0.368104
    189 H93        -1.7540   -1.9870   -3.2030 ho        1 MOL      0.368104
@<TRIPOS>BOND
     1    1    2 1   
     2    1    4 1   
     3    1    5 1   
     4    1    6 1   
     5    2    3 2   
     6    2    7 1   
     7    7    8 1   
     8    7   15 1   
     9    8    9 1   
    10    8   11 1   
    11    8   16 1   
    12    9   10 2   
    13    9   19 1   
    14   11   12 1   
    15   11   17 1   
    16   11   18 1   
    17   12   13 1   
    18   12   14 1   
    19   19   20 1   
    20   19   28 1   
    21   20   21 1   
    22   20   23 1   
    23   20   29 1   
    24   21   22 2   
    25   21   41 1   
    26   23   24 1   
    27   23   30 1   
    28   23   31 1   
    29   24   25 1   
    30   24   32 1   
    31   24   33 1   
    32   25   26 1   
    33   25   34 1   
    34   25   35 1   
    35   26   27 1   
    36   26   36 1   
    37   26   37 1   
    38   27   38 1   
    39   27   39 1   
    40   27   40 1   
    41   41   42 1   
    42   41   49 1   
    43   42   43 1   
    44   42   45 1   
    45   42   50 1   
    46   43   44 2   
    47   43   53 1   
    48   45   46 1   
    49   45   51 1   
    50   45   52 1   
    51   46   47 1   
    52   46   48 1   
    53   53   54 1   
    54   53   57 1   
    55   54   55 1   
    56   54   58 1   
    57   54   59 1   
    58   55   56 2   
    59   55   60 1   
    60   60   61 1   
    61   60   68 1   
    62   61   62 1   
    63   61   64 1   
    64   61   69 1   
    65   62   63 2   
    66   62   72 1   
    67   64   65 1   
    68   64   70 1   
    69   64   71 1   
    70   65   66 1   
    71   65   67 1   
    72   72   73 1   
    73   72   76 1   
    74   73   74 1   
    75   73   77 1   
    76   73   78 1   
    77   74   75 2   
    78   74   79 1   
    79   79   80 1   
    80   79   86 1   
    81   80   81 1   
    82   80   83 1   
    83   80   87 1   
    84   81   82 2   
    85   81   93 1   
    86   83   84 1   
    87   83   85 1   
    88   83   88 1   
    89   84   90 1   
    90   84   91 1   
    91   84   92 1   
    92   85   89 1   
    93   93   94 1   
    94   93  101 1   
    95   94   95 1   
    96   94   97 1   
    97   94  102 1   
    98   95   96 2   
    99   95  112 1   
   100   97   98 1   
   101   97   99 1   
   102   97  103 1   
   103   98  100 1   
   104   98  104 1   
   105   98  105 1   
   106   99  106 1   
   107   99  107 1   
   108   99  108 1   
   109  100  109 1   
   110  100  110 1   
   111  100  111 1   
   112  112  113 1   
   113  112  119 1   
   114  113  114 1   
   115  113  116 1   
   116  113  120 1   
   117  114  115 2   
   118  114  126 1   
   119  116  117 1   
   120  116  118 1   
   121  116  121 1   
   122  117  123 1   
   123  117  124 1   
   124  117  125 1   
   125  118  122 1   
   126  126  127 1   
   127  126  133 1   
   128  127  128 1   
   129  127  130 1   
   130  127  134 1   
   131  128  129 2   
   132  128  140 1   
   133  130  131 1   
   134  130  132 1   
   135  130  135 1   
   136  131  137 1   
   137  131  138 1   
   138  131  139 1   
   139  132  136 1   
   140  140  141 1   
   141  140  149 1   
   142  141  142 1   
   143  141  144 1   
   144  141  150 1   
   145  142  143 2   
   146  142  162 1   
   147  144  145 1   
   148  144  151 1   
   149  144  152 1   
   150  145  146 1   
   151  145  153 1   
   152  145  154 1   
   153  146  147 1   
   154  146  155 1   
   155  146  156 1   
   156  147  148 1   
   157  147  157 1   
   158  147  158 1   
   159  148  159 1   
   160  148  160 1   
   161  148  161 1   
   162  162  163 1   
   163  162  171 1   
   164  163  164 1   
   165  163  166 1   
   166  163  172 1   
   167  164  165 2   
   168  164  177 1   
   169  166  167 1   
   170  166  173 1   
   171  166  174 1   
   172  167  168 1   
   173  167  175 1   
   174  167  176 1   
   175  168  169 1   
   176  168  170 1   
   177  177  178 1   
   178  177  182 1   
   179  178  179 1   
   180  178  180 1   
   181  178  181 1   
   182  184  185 1   
   183  184  186 1   
   184  187  188 1   
   185  187  189 1   
@<TRIPOS>SUBSTRUCTURE
     1 MOL         1 TEMP              0 ****  ****    0 ROOT
