@<TRIPOS>MOLECULE
MOL
  179   176     1     0     0
SMALL
resp


@<TRIPOS>ATOM
      1 C1          2.1960    1.6450    5.7540 c3        1 MOL     -0.322650
      2 C2          1.6090    1.5270    4.3250 c         1 MOL      0.822076
      3 O1          2.4110    1.4480    3.4270 o         1 MOL     -0.644121
      4 H1          1.5360    2.2590    6.3670 hc        1 MOL      0.075173
      5 H2          2.2830    0.6530    6.1950 hc        1 MOL      0.075173
      6 H3          3.1810    2.1090    5.7050 hc        1 MOL      0.075173
      7 N1          0.3280    1.7070    4.1700 n         1 MOL     -0.643218
      8 C3         -0.2640    1.9120    2.8730 c3        1 MOL      0.171207
      9 C4         -0.0950    3.3610    2.4440 c         1 MOL      0.476573
     10 O2         -0.5550    4.3410    3.1090 o         1 MOL     -0.532078
     11 C5         -1.7170    1.4170    2.9550 c3        1 MOL     -0.403566
     12 C6         -2.4750    1.5180    1.6700 c         1 MOL      0.981832
     13 O3         -3.7300    1.3250    1.6570 o         1 MOL     -0.799136
     14 O4         -1.9080    1.7640    0.6470 o         1 MOL     -0.799136
     15 H4         -0.2860    1.9010    4.9470 hn        1 MOL      0.337606
     16 H5          0.2320    1.2830    2.1280 h1        1 MOL      0.053055
     17 H6         -2.3570    2.0220    3.6050 hc        1 MOL      0.103217
     18 H7         -1.8130    0.3540    3.1800 hc        1 MOL      0.103217
     19 N2          0.5670    3.4920    1.2710 n         1 MOL     -0.104865
     20 C7          1.0730    4.7760    0.8140 c3        1 MOL     -0.486542
     21 C8          0.0130    5.6630    0.1640 c         1 MOL      0.613055
     22 O5         -0.0370    6.8730    0.3180 o         1 MOL     -0.540005
     23 C9          2.3800    4.5980    0.0860 c3        1 MOL      0.370761
     24 C10         3.2080    5.8600   -0.0220 c3        1 MOL     -0.142693
     25 C11         4.4070    5.5900   -0.9800 c3        1 MOL     -0.119081
     26 C12         5.6660    6.4570   -0.5840 c3        1 MOL      0.134568
     27 N3          6.6560    6.3010   -1.6780 n4        1 MOL     -0.307046
     28 H8          0.8400    2.7080    0.7000 hn        1 MOL      0.092382
     29 H9          1.2400    5.4010    1.6920 h1        1 MOL      0.152305
     30 H10         2.2170    4.3020   -0.9490 hc        1 MOL      0.004840
     31 H11         3.0190    3.8270    0.5290 hc        1 MOL      0.004840
     32 H12         3.4730    6.0870    1.0100 hc        1 MOL      0.052745
     33 H13         2.5610    6.6330   -0.4320 hc        1 MOL      0.052745
     34 H14         4.0880    5.9340   -1.9600 hc        1 MOL      0.051331
     35 H15         4.7640    4.5600   -0.8540 hc        1 MOL      0.051331
     36 H16         6.0640    6.1940    0.3900 hx        1 MOL      0.060920
     37 H17         5.3410    7.4990   -0.5560 hx        1 MOL      0.060920
     38 H18         7.1810    7.1610   -1.7260 hn        1 MOL      0.306760
     39 H19         7.3230    5.5650   -1.5270 hn        1 MOL      0.306760
     40 H20         6.2900    6.2080   -2.6170 hn        1 MOL      0.306760
     41 N4         -0.7400    4.9920   -0.7680 n         1 MOL     -0.442123
     42 C13        -1.8990    5.4700   -1.5250 c3        1 MOL      0.135132
     43 C14        -3.2520    5.3810   -0.7840 c         1 MOL      0.410049
     44 O6         -4.0690    6.2510   -1.1250 o         1 MOL     -0.534786
     45 C15        -1.9850    4.7470   -2.8710 c3        1 MOL     -0.265922
     46 C16        -1.8730    3.2200   -2.7010 c         1 MOL      0.704183
     47 O7         -2.8860    2.6550   -2.1810 o         1 MOL     -0.758419
     48 O8         -0.7560    2.6510   -2.8350 o         1 MOL     -0.758419
     49 H21        -0.6160    3.9970   -0.6950 hn        1 MOL      0.306642
     50 H22        -1.8260    6.5230   -1.8020 h1        1 MOL      0.072393
     51 H23        -1.2700    5.1270   -3.5980 hc        1 MOL      0.077570
     52 H24        -2.9570    4.9770   -3.3110 hc        1 MOL      0.077570
     53 N5         -3.4330    4.3800    0.0870 n         1 MOL     -0.106245
     54 C17        -4.6210    4.2270    0.8030 c3        1 MOL     -0.120012
     55 C18        -5.7140    3.4140    0.0370 c         1 MOL      0.491790
     56 O9         -6.9130    3.6670    0.3150 o         1 MOL     -0.578196
     57 H25        -2.7040    3.7030    0.2250 hn        1 MOL      0.118890
     58 H26        -4.9970    5.2140    1.0660 h1        1 MOL      0.086775
     59 H27        -4.3920    3.7230    1.7380 h1        1 MOL      0.086775
     60 N6         -5.3820    2.5230   -0.8940 n         1 MOL     -0.147698
     61 C19        -6.3570    1.6430   -1.4580 c3        1 MOL     -0.187672
     62 C20        -6.8040    0.4930   -0.4580 c         1 MOL      0.392637
     63 O10        -7.6170   -0.3310   -0.8900 o         1 MOL     -0.471011
     64 C21        -5.7510    0.9550   -2.6260 c3        1 MOL     -0.029817
     65 C22        -4.6800   -0.1400   -2.4050 c         1 MOL      0.385235
     66 N7         -4.7390   -1.2020   -3.2200 n         1 MOL     -0.825534
     67 O11        -3.7890   -0.1440   -1.5940 o         1 MOL     -0.218604
     68 H28        -4.4080    2.3130   -1.0940 hn        1 MOL      0.144402
     69 H29        -7.2270    2.2400   -1.7160 h1        1 MOL      0.159472
     70 H30        -5.4330    1.6830   -3.3790 hc        1 MOL      0.067061
     71 H31        -6.6620    0.5710   -3.1020 hc        1 MOL      0.067061
     72 H32        -5.5570   -1.4080   -3.7820 hn        1 MOL      0.383409
     73 H33        -3.9930   -1.8830   -3.1910 hn        1 MOL      0.383409
     74 N8         -6.3720    0.4510    0.8590 n         1 MOL     -0.147323
     75 C23        -6.6740   -0.6280    1.7570 c3        1 MOL     -0.452508
     76 C24        -5.8010   -1.8540    1.5760 c         1 MOL      0.559615
     77 O12        -6.2520   -2.9360    1.9730 o         1 MOL     -0.510000
     78 H34        -5.5030    0.9430    0.9930 hn        1 MOL      0.235484
     79 H35        -7.6790   -0.9070    1.4660 h1        1 MOL      0.181001
     80 H36        -6.6280   -0.2490    2.7840 h1        1 MOL      0.181001
     81 N9         -4.5880   -1.7080    0.9840 n         1 MOL     -0.187071
     82 C25        -3.5080   -2.7860    1.0170 c3        1 MOL     -0.308849
     83 C26        -2.0670   -2.3100    1.2060 c         1 MOL      0.766550
     84 O13        -1.7240   -1.2610    0.6800 o         1 MOL     -0.823596
     85 C27        -3.7080   -3.5840   -0.2670 c3        1 MOL      0.561550
     86 C28        -4.8960   -4.4420   -0.4880 ca        1 MOL     -0.316264
     87 C29        -5.9650   -3.9500   -1.2320 ca        1 MOL     -0.036937
     88 C30        -5.0460   -5.7410    0.0780 ca        1 MOL     -0.036937
     89 C31        -7.0810   -4.7130   -1.5690 ca        1 MOL     -0.311584
     90 C32        -6.2160   -6.4830   -0.1530 ca        1 MOL     -0.311584
     91 C33        -7.2410   -5.9600   -1.0150 ca        1 MOL      0.450679
     92 O14        -8.2830   -6.7660   -1.2670 oh        1 MOL     -0.509036
     93 H37        -4.4060   -0.8000    0.5750 hn        1 MOL      0.230056
     94 H38        -3.7630   -3.4960    1.8060 h1        1 MOL      0.088104
     95 H39        -2.8050   -4.1900   -0.4040 hc        1 MOL     -0.132431
     96 H40        -3.5720   -2.8750   -1.0820 hc        1 MOL     -0.132431
     97 H41        -5.9020   -2.9090   -1.4930 ha        1 MOL      0.102172
     98 H42        -4.2380   -6.1200    0.6870 ha        1 MOL      0.102172
     99 H43        -7.7840   -4.3760   -2.3070 ha        1 MOL      0.146412
    100 H44        -6.3350   -7.4510    0.3030 ha        1 MOL      0.146412
    101 H45        -8.1630   -7.6160   -0.8370 ho        1 MOL      0.359235
    102 N10        -1.1790   -3.1140    1.8650 n         1 MOL     -0.469587
    103 C34         0.3100   -2.8790    1.9210 c3        1 MOL     -0.075926
    104 C35         1.0000   -3.8330    0.8770 c         1 MOL      0.562754
    105 O15         0.6260   -5.0280    0.8310 o         1 MOL     -0.587139
    106 C36         0.9260   -3.1290    3.3020 c3        1 MOL      0.106115
    107 C37         0.1840   -2.4640    4.4360 c3        1 MOL      0.294862
    108 C38         2.3770   -2.7910    3.3070 c3        1 MOL     -0.259753
    109 C39         0.5530   -2.9230    5.8550 c3        1 MOL     -0.229927
    110 H46        -1.5870   -3.9440    2.2740 hn        1 MOL      0.283065
    111 H47         0.4260   -1.8520    1.5840 h1        1 MOL      0.210581
    112 H48         0.9600   -4.2040    3.4970 hc        1 MOL      0.017036
    113 H49        -0.8660   -2.7050    4.2640 hc        1 MOL     -0.083442
    114 H50         0.2660   -1.3760    4.3660 hc        1 MOL     -0.083442
    115 H51         2.5640   -1.9030    2.7110 hc        1 MOL      0.047860
    116 H52         2.8300   -2.5200    4.2590 hc        1 MOL      0.047860
    117 H53         2.9280   -3.6420    2.9020 hc        1 MOL      0.047860
    118 H54         0.1290   -2.1840    6.5440 hc        1 MOL      0.047522
    119 H55         0.1060   -3.8980    6.0090 hc        1 MOL      0.047522
    120 H56         1.6190   -3.0770    6.0200 hc        1 MOL      0.047522
    121 N11         2.0240   -3.3840    0.1950 n         1 MOL     -0.156166
    122 C40         2.8950   -4.1660   -0.7660 c3        1 MOL     -0.131865
    123 C41         4.4610   -3.8800   -0.4850 c         1 MOL      0.428541
    124 O16         4.8370   -2.8890    0.0720 o         1 MOL     -0.407148
    125 C42         2.5640   -3.8000   -2.2120 c3        1 MOL      0.162158
    126 O17         2.9880   -2.5020   -2.4630 oh        1 MOL     -0.550429
    127 H57         2.1660   -2.3860    0.2040 hn        1 MOL      0.135532
    128 H58         2.6580   -5.2250   -0.6670 h1        1 MOL      0.082460
    129 H59         1.4740   -3.8550   -2.2920 h1        1 MOL      0.024211
    130 H60         3.0820   -4.5290   -2.8400 h1        1 MOL      0.024211
    131 H61         2.5350   -1.8860   -1.8800 ho        1 MOL      0.324707
    132 N12         5.3020   -4.7720   -0.9660 n         1 MOL     -0.338367
    133 C43         6.7230   -4.6860   -0.6850 c3        1 MOL     -0.000126
    134 C44         7.4390   -3.4470   -1.1830 c         1 MOL      0.509278
    135 O18         8.3380   -2.9700   -0.5260 o         1 MOL     -0.534888
    136 C45         7.2150   -5.8310   -1.4820 c3        1 MOL     -0.265678
    137 H62         4.8890   -5.5810   -1.4070 hn        1 MOL      0.277436
    138 H63         6.9000   -4.8840    0.3720 h1        1 MOL      0.134812
    139 H64         8.2860   -5.9720   -1.3160 hc        1 MOL      0.083753
    140 H65         6.7720   -6.7740   -1.1570 hc        1 MOL      0.083753
    141 H66         7.0710   -5.7700   -2.5530 hc        1 MOL      0.083753
    142 N13         6.9870   -2.7480   -2.1970 n         1 MOL     -0.342560
    143 C46         7.5230   -1.4530   -2.7020 c3        1 MOL      0.015256
    144 C47         7.0800   -0.2550   -1.8160 c         1 MOL      0.366742
    145 O19         7.9240    0.5940   -1.6150 o         1 MOL     -0.525509
    146 C48         7.1530   -1.1930   -4.1850 c3        1 MOL     -0.246871
    147 H67         6.2310   -3.1780   -2.6960 hn        1 MOL      0.253522
    148 H68         8.6130   -1.4140   -2.6150 h1        1 MOL      0.131347
    149 H69         6.0950   -1.0640   -4.4060 hc        1 MOL      0.077730
    150 H70         7.6350   -0.2880   -4.5700 hc        1 MOL      0.077730
    151 H71         7.4150   -2.0000   -4.8640 hc        1 MOL      0.077730
    152 N14         5.9740   -0.3350   -1.1520 n         1 MOL     -0.057374
    153 C49         5.5560    0.5740   -0.0640 c3        1 MOL     -0.410868
    154 C50         6.3170    0.2930    1.2690 c         1 MOL      0.548250
    155 O20         6.6880    1.1890    1.9670 o         1 MOL     -0.540635
    156 C51         3.9790    0.5260    0.1340 c3        1 MOL      0.174612
    157 C52         3.2220    0.9500   -1.1180 c3        1 MOL      0.009096
    158 C53         1.7580    0.4930   -0.8640 c         1 MOL      0.526450
    159 O21         1.3220   -0.6170   -1.2430 o         1 MOL     -0.623802
    160 O22         0.9870    1.3230   -0.3690 o         1 MOL     -0.623802
    161 H72         5.4030   -1.1410   -1.3960 hn        1 MOL      0.165898
    162 H73         5.8340    1.5760   -0.3930 h1        1 MOL      0.168443
    163 H74         3.8280    1.2240    0.9620 hc        1 MOL      0.016392
    164 H75         3.6470   -0.4880    0.3810 hc        1 MOL      0.016392
    165 H76         3.7090    0.4750   -1.9700 hc        1 MOL     -0.042141
    166 H77         3.2940    2.0350   -1.2080 hc        1 MOL     -0.042141
    167 N15         6.6150   -0.9760    1.4560 n         1 MOL     -0.065968
    168 C54         7.3960   -1.3160    2.6550 c3        1 MOL     -0.329882
    169 H78         6.9310   -0.8640    3.5310 h1        1 MOL      0.121761
    170 H79         7.4230   -2.3990    2.7760 h1        1 MOL      0.121761
    171 H80         8.4120   -0.9360    2.5480 h1        1 MOL      0.121761
    172 H81         6.1210   -1.6840    0.9320 hn        1 MOL      0.130515
    173 Ca1        -1.2570    0.4420   -1.3990 Ca        1 MOL      1.801353
    174 O23        -0.8620   -2.1700   -2.1700 oh        1 MOL     -0.907827
    175 H82        -0.3530   -2.2770   -2.9760 ho        1 MOL      0.437526
    176 H83        -1.0210   -3.0690   -1.8690 ho        1 MOL      0.437526
    177 O24        -1.6440   -0.2020   -3.9120 oh        1 MOL     -0.907827
    178 H84        -1.5550    0.5370   -4.5140 ho        1 MOL      0.437526
    179 H85        -1.9500   -0.9230   -4.4590 ho        1 MOL      0.437526
@<TRIPOS>BOND
     1    1    2 1   
     2    1    4 1   
     3    1    5 1   
     4    1    6 1   
     5    2    3 2   
     6    2    7 1   
     7    7    8 1   
     8    7   15 1   
     9    8    9 1   
    10    8   11 1   
    11    8   16 1   
    12    9   10 2   
    13    9   19 1   
    14   11   12 1   
    15   11   17 1   
    16   11   18 1   
    17   12   13 1   
    18   12   14 1   
    19   19   20 1   
    20   19   28 1   
    21   20   21 1   
    22   20   23 1   
    23   20   29 1   
    24   21   22 2   
    25   21   41 1   
    26   23   24 1   
    27   23   30 1   
    28   23   31 1   
    29   24   25 1   
    30   24   32 1   
    31   24   33 1   
    32   25   26 1   
    33   25   34 1   
    34   25   35 1   
    35   26   27 1   
    36   26   36 1   
    37   26   37 1   
    38   27   38 1   
    39   27   39 1   
    40   27   40 1   
    41   41   42 1   
    42   41   49 1   
    43   42   43 1   
    44   42   45 1   
    45   42   50 1   
    46   43   44 2   
    47   43   53 1   
    48   45   46 1   
    49   45   51 1   
    50   45   52 1   
    51   46   47 1   
    52   46   48 1   
    53   53   54 1   
    54   53   57 1   
    55   54   55 1   
    56   54   58 1   
    57   54   59 1   
    58   55   56 2   
    59   55   60 1   
    60   60   61 1   
    61   60   68 1   
    62   61   62 1   
    63   61   64 1   
    64   61   69 1   
    65   62   63 2   
    66   62   74 1   
    67   64   65 1   
    68   64   70 1   
    69   64   71 1   
    70   65   66 1   
    71   65   67 2   
    72   66   72 1   
    73   66   73 1   
    74   74   75 1   
    75   74   78 1   
    76   75   76 1   
    77   75   79 1   
    78   75   80 1   
    79   76   77 2   
    80   76   81 1   
    81   81   82 1   
    82   81   93 1   
    83   82   83 1   
    84   82   85 1   
    85   82   94 1   
    86   83   84 2   
    87   83  102 1   
    88   85   86 1   
    89   85   95 1   
    90   85   96 1   
    91   86   87 ar  
    92   86   88 ar  
    93   87   89 ar  
    94   87   97 1   
    95   88   90 ar  
    96   88   98 1   
    97   89   91 ar  
    98   89   99 1   
    99   90   91 ar  
   100   90  100 1   
   101   91   92 1   
   102   92  101 1   
   103  102  103 1   
   104  102  110 1   
   105  103  104 1   
   106  103  106 1   
   107  103  111 1   
   108  104  105 2   
   109  104  121 1   
   110  106  107 1   
   111  106  108 1   
   112  106  112 1   
   113  107  109 1   
   114  107  113 1   
   115  107  114 1   
   116  108  115 1   
   117  108  116 1   
   118  108  117 1   
   119  109  118 1   
   120  109  119 1   
   121  109  120 1   
   122  121  122 1   
   123  121  127 1   
   124  122  123 1   
   125  122  125 1   
   126  122  128 1   
   127  123  124 2   
   128  123  132 1   
   129  125  126 1   
   130  125  129 1   
   131  125  130 1   
   132  126  131 1   
   133  132  133 1   
   134  132  137 1   
   135  133  134 1   
   136  133  136 1   
   137  133  138 1   
   138  134  135 2   
   139  134  142 1   
   140  136  139 1   
   141  136  140 1   
   142  136  141 1   
   143  142  143 1   
   144  142  147 1   
   145  143  144 1   
   146  143  146 1   
   147  143  148 1   
   148  144  145 2   
   149  144  152 1   
   150  146  149 1   
   151  146  150 1   
   152  146  151 1   
   153  152  153 1   
   154  152  161 1   
   155  153  154 1   
   156  153  156 1   
   157  153  162 1   
   158  154  155 2   
   159  154  167 1   
   160  156  157 1   
   161  156  163 1   
   162  156  164 1   
   163  157  158 1   
   164  157  165 1   
   165  157  166 1   
   166  158  159 1   
   167  158  160 1   
   168  167  168 1   
   169  167  172 1   
   170  168  169 1   
   171  168  170 1   
   172  168  171 1   
   173  174  175 1   
   174  174  176 1   
   175  177  178 1   
   176  177  179 1   
@<TRIPOS>SUBSTRUCTURE
     1 MOL         1 TEMP              0 ****  ****    0 ROOT
