@<TRIPOS>MOLECULE
MOL
  175   173     1     0     0
SMALL
resp


@<TRIPOS>ATOM
      1 C1          0.9270    3.9260    5.4510 c3        1 MOL     -0.359585
      2 C2          0.1480    3.9790    4.1370 c         1 MOL      0.775301
      3 O1          0.7710    3.9860    3.1110 o         1 MOL     -0.548299
      4 H1          0.4390    4.5640    6.1880 hc        1 MOL      0.083706
      5 H2          0.9520    2.9010    5.8180 hc        1 MOL      0.083706
      6 H3          1.9460    4.2770    5.2840 hc        1 MOL      0.083706
      7 N1         -1.2120    3.9510    4.0490 n         1 MOL     -0.773875
      8 C3         -1.9140    3.6500    2.7690 c3        1 MOL      0.224755
      9 C4         -2.0600    4.8960    1.9020 c         1 MOL      0.710563
     10 O2         -2.0770    6.0030    2.3300 o         1 MOL     -0.582889
     11 C5         -3.2840    3.0180    3.1280 c3        1 MOL     -0.422353
     12 C6         -4.0020    2.4230    1.9610 c         1 MOL      0.756841
     13 O3         -5.1780    1.9620    2.0440 o         1 MOL     -0.694048
     14 O4         -3.4170    2.1900    0.8910 o         1 MOL     -0.694048
     15 H4         -1.7610    3.9570    4.8910 hn        1 MOL      0.347022
     16 H5         -1.3350    2.8830    2.2710 h1        1 MOL      0.105258
     17 H6         -3.8850    3.7550    3.6700 hc        1 MOL      0.100864
     18 H7         -3.2510    2.2480    3.8940 hc        1 MOL      0.100864
     19 N2         -2.1400    4.6530    0.5930 n         1 MOL     -0.748503
     20 C7         -2.3900    5.6370   -0.4300 c3        1 MOL      0.380540
     21 C8         -3.2300    5.1300   -1.6640 c         1 MOL      0.424881
     22 O5         -3.3120    5.7450   -2.7450 o         1 MOL     -0.556111
     23 C9         -1.0600    6.3050   -0.7830 c3        1 MOL     -0.238442
     24 H8         -2.2970    3.6760    0.3810 hn        1 MOL      0.445785
     25 H9         -3.0210    6.4550   -0.0840 h1        1 MOL     -0.026549
     26 H10        -0.4110    5.5970   -1.2860 hc        1 MOL      0.055922
     27 H11        -1.1770    7.1130   -1.5120 hc        1 MOL      0.055922
     28 H12        -0.6140    6.7220    0.1170 hc        1 MOL      0.055922
     29 N3         -3.9120    3.9730   -1.5070 n         1 MOL     -0.272652
     30 C10        -4.8050    3.4070   -2.5620 c3        1 MOL     -0.008969
     31 C11        -6.1520    2.7920   -2.1500 c         1 MOL      0.435308
     32 O6         -6.9850    2.8200   -3.0220 o         1 MOL     -0.530691
     33 C12        -3.9620    2.3890   -3.3920 c3        1 MOL     -0.140333
     34 C13        -3.3280    1.3750   -2.4490 c         1 MOL      0.624858
     35 O7         -2.1020    1.1010   -2.5350 o         1 MOL     -0.677715
     36 O8         -4.0320    0.7780   -1.5740 o         1 MOL     -0.677715
     37 H13        -3.8950    3.5480   -0.5940 hn        1 MOL      0.104007
     38 H14        -5.1100    4.2600   -3.1890 h1        1 MOL      0.088952
     39 H15        -3.1500    2.8170   -3.9880 hc        1 MOL      0.059442
     40 H16        -4.5860    1.8690   -4.1250 hc        1 MOL      0.059442
     41 N4         -6.3510    2.2670   -0.9170 n         1 MOL     -0.293600
     42 C14        -7.5270    1.4820   -0.5040 c3        1 MOL     -0.212773
     43 C15        -7.5970    0.0440   -1.0730 c         1 MOL      0.469979
     44 O9         -8.7000   -0.5200   -1.0570 o         1 MOL     -0.581770
     45 H17        -5.5900    2.4540   -0.2870 hn        1 MOL      0.247495
     46 H18        -8.4130    2.0680   -0.7570 h1        1 MOL      0.123472
     47 H19        -7.4970    1.4990    0.5810 h1        1 MOL      0.123472
     48 N5         -6.4590   -0.5340   -1.5130 n         1 MOL     -0.140096
     49 C16        -6.3270   -1.8860   -2.0730 c3        1 MOL     -0.245566
     50 C17        -6.2420   -3.1230   -1.1130 c         1 MOL      0.528941
     51 O10        -6.2870   -4.3000   -1.4470 o         1 MOL     -0.536305
     52 C18        -5.0830   -1.8160   -3.0400 c3        1 MOL      0.067159
     53 C19        -3.6910   -1.9770   -2.4380 c         1 MOL      0.276763
     54 N6         -2.6860   -1.8410   -3.2640 n         1 MOL     -0.488622
     55 O11        -3.4710   -2.0540   -1.2370 o         1 MOL     -0.145805
     56 H20        -5.5900   -0.0240   -1.5000 hn        1 MOL      0.249390
     57 H21        -7.1910   -2.1280   -2.7090 h1        1 MOL      0.130640
     58 H22        -5.1650   -0.9350   -3.6710 hc        1 MOL      0.006055
     59 H23        -5.2270   -2.6440   -3.7250 hc        1 MOL      0.006055
     60 H24        -2.9060   -1.9620   -4.2440 hn        1 MOL      0.279757
     61 H25        -1.7260   -1.8930   -2.9410 hn        1 MOL      0.279757
     62 N7         -6.1620   -2.8320    0.2150 n         1 MOL     -0.199510
     63 C20        -6.3020   -3.7890    1.3440 c3        1 MOL     -0.286399
     64 C21        -5.1020   -4.6530    1.5590 c         1 MOL      0.614319
     65 O12        -5.1510   -5.6080    2.2710 o         1 MOL     -0.588581
     66 H26        -5.8930   -1.8870    0.4210 hn        1 MOL      0.159212
     67 H27        -7.1570   -4.4410    1.1760 h1        1 MOL      0.124519
     68 H28        -6.4370   -3.3230    2.3240 h1        1 MOL      0.124519
     69 N8         -3.9180   -4.3350    0.9490 n         1 MOL     -0.195049
     70 C22        -2.5420   -4.7320    1.1430 c3        1 MOL     -0.185998
     71 C23        -1.6370   -3.5580    1.3960 c         1 MOL      0.638693
     72 O13        -1.8460   -2.4460    0.9510 o         1 MOL     -0.699347
     73 C24        -2.1400   -5.5420   -0.0720 c3        1 MOL      0.481851
     74 C25        -2.9030   -6.8290   -0.1350 c3        1 MOL     -0.493115
     75 O14        -2.5040   -4.9230   -1.3500 oh        1 MOL     -0.570625
     76 H29        -4.0260   -3.6710    0.2050 hn        1 MOL      0.064161
     77 H30        -2.5000   -5.3980    2.0080 h1        1 MOL      0.076793
     78 H31        -1.0590   -5.6880   -0.0220 h1        1 MOL     -0.022350
     79 H32        -2.2440   -4.0050   -1.2670 ho        1 MOL      0.304633
     80 H33        -2.8400   -7.3970    0.8030 hc        1 MOL      0.120354
     81 H34        -3.9950   -6.7700   -0.2090 hc        1 MOL      0.120354
     82 H35        -2.5300   -7.5010   -0.9030 hc        1 MOL      0.120354
     83 N9         -0.5000   -3.8270    1.9270 n         1 MOL     -0.434466
     84 C26         0.6720   -2.9510    1.9410 c3        1 MOL      0.081817
     85 C27         1.3910   -3.1390    0.5590 c         1 MOL      0.493574
     86 O15         1.5670   -4.3000    0.1010 o         1 MOL     -0.611966
     87 C28         1.6460   -3.2740    3.1300 c3        1 MOL      0.020467
     88 C29         1.0690   -2.7130    4.3980 c3        1 MOL      0.149735
     89 C30         3.0820   -2.7140    2.8440 c3        1 MOL     -0.246621
     90 C31         1.4820   -3.5640    5.5690 c3        1 MOL     -0.216176
     91 H36        -0.3090   -4.7820    2.1930 hn        1 MOL      0.241309
     92 H37         0.4070   -1.9170    2.1260 h1        1 MOL      0.050905
     93 H38         1.5840   -4.3570    3.2060 hc        1 MOL      0.024818
     94 H39        -0.0080   -2.6380    4.2780 hc        1 MOL     -0.021069
     95 H40         1.4400   -1.6900    4.4780 hc        1 MOL     -0.021069
     96 H41         3.6650   -3.1750    2.0520 hc        1 MOL      0.053556
     97 H42         3.0590   -1.6570    2.5860 hc        1 MOL      0.053556
     98 H43         3.6150   -2.9200    3.7680 hc        1 MOL      0.053556
     99 H44         1.0580   -3.0480    6.4210 hc        1 MOL      0.042092
    100 H45         1.0470   -4.5580    5.4280 hc        1 MOL      0.042092
    101 H46         2.5500   -3.7530    5.6040 hc        1 MOL      0.042092
    102 N10         1.9060   -2.0880    0.0550 n         1 MOL     -0.126834
    103 C32         2.7510   -2.0290   -1.2110 c3        1 MOL      0.006824
    104 C33         4.1920   -1.5730   -0.8730 c         1 MOL      0.413352
    105 O16         4.4130   -0.9910    0.1870 o         1 MOL     -0.317366
    106 C34         2.0960   -1.1140   -2.2500 c3        1 MOL     -0.250697
    107 C35         0.6810   -1.5170   -2.5240 c         1 MOL      0.786265
    108 O17         0.4210   -2.0650   -3.6000 o         1 MOL     -0.696729
    109 O18        -0.2710   -1.2440   -1.7610 o         1 MOL     -0.696729
    110 H47         1.7250   -1.2030    0.5130 hn        1 MOL      0.097612
    111 H48         2.9250   -2.9690   -1.7270 h1        1 MOL      0.081087
    112 H49         2.6760   -1.1550   -3.1740 hc        1 MOL      0.065362
    113 H50         2.1630   -0.0840   -1.9130 hc        1 MOL      0.065362
    114 N11         5.1700   -1.6970   -1.7860 n         1 MOL     -0.646565
    115 C36         6.5190   -1.2800   -1.4640 c3        1 MOL      0.442144
    116 C37         6.7070    0.2690   -1.2670 c         1 MOL      0.343752
    117 O19         7.3660    0.6650   -0.3400 o         1 MOL     -0.510933
    118 C38         7.4900   -1.7500   -2.5250 c3        1 MOL     -0.412612
    119 C39         8.9390   -1.5570   -2.1310 ca        1 MOL      0.259285
    120 C40         9.8260   -0.6590   -2.7490 ca        1 MOL     -0.281851
    121 C41         9.4290   -2.3310   -1.0640 ca        1 MOL     -0.281851
    122 C42        11.1620   -0.5950   -2.3550 ca        1 MOL      0.022154
    123 C43        10.7580   -2.1620   -0.5970 ca        1 MOL      0.022154
    124 C44        11.6340   -1.3520   -1.2400 ca        1 MOL     -0.250821
    125 H51         5.0300   -2.2090   -2.6530 hn        1 MOL      0.359649
    126 H52         6.8410   -1.6860   -0.5090 h1        1 MOL      0.041559
    127 H53         7.3360   -1.2300   -3.4650 hc        1 MOL      0.104223
    128 H54         7.3380   -2.8110   -2.6900 hc        1 MOL      0.104223
    129 H55         9.4820   -0.0000   -3.5360 ha        1 MOL      0.137670
    130 H56         8.7610   -2.9450   -0.4840 ha        1 MOL      0.137670
    131 H57        11.9010   -0.1160   -2.9680 ha        1 MOL      0.076510
    132 H58        11.0580   -2.7840    0.2310 ha        1 MOL      0.076510
    133 H59        12.5800   -1.1590   -0.7610 ha        1 MOL      0.134604
    134 N12         5.9620    1.1480   -2.0390 n         1 MOL     -0.038679
    135 C45         5.8480    2.6060   -1.6800 c3        1 MOL      0.007842
    136 C46         5.1940    2.9110   -0.2620 c         1 MOL      0.249016
    137 O20         5.2020    4.0870    0.1570 o         1 MOL     -0.498427
    138 C47         5.0310    3.3160   -2.7770 c3        1 MOL     -0.117534
    139 C48         5.3510    2.4440   -3.9470 c3        1 MOL      0.152480
    140 C49         5.4450    1.0320   -3.3680 c3        1 MOL     -0.225251
    141 H60         6.8590    3.0260   -1.6090 h1        1 MOL      0.084366
    142 H61         3.9650    3.1110   -2.6410 hc        1 MOL      0.072329
    143 H62         5.3370    4.3540   -2.9230 hc        1 MOL      0.072329
    144 H63         4.6620    2.5860   -4.7820 hc        1 MOL     -0.018419
    145 H64         6.3440    2.7880   -4.2650 hc        1 MOL     -0.018419
    146 H65         4.4290    0.6740   -3.2060 h1        1 MOL      0.075884
    147 H66         5.9330    0.2860   -3.9810 h1        1 MOL      0.075884
    148 N13         4.7470    1.8670    0.4260 n         1 MOL      0.001296
    149 C50         4.2390    1.9110    1.7280 c3        1 MOL     -0.024091
    150 C51         5.0040    1.1160    2.8170 c         1 MOL      0.421450
    151 O21         5.1430    1.5780    3.9170 o         1 MOL     -0.544199
    152 C52         2.7630    1.5810    1.7520 c3        1 MOL     -0.024741
    153 C53         1.9550    2.0000    0.5170 c3        1 MOL     -0.055282
    154 C54         0.5120    1.4420    0.6000 c         1 MOL      0.574202
    155 O22        -0.4590    2.0830    0.0600 o         1 MOL     -0.688246
    156 O23         0.3600    0.2840    1.0360 o         1 MOL     -0.688246
    157 H67         4.5610    1.0400   -0.1160 hn        1 MOL      0.079195
    158 H68         4.3340    2.9360    2.0870 h1        1 MOL      0.083886
    159 H69         2.2880    1.8830    2.6830 hc        1 MOL      0.033726
    160 H70         2.6870    0.4880    1.8150 hc        1 MOL      0.033726
    161 H71         2.3320    1.5220   -0.3830 hc        1 MOL      0.055380
    162 H72         1.9300    3.0910    0.4080 hc        1 MOL      0.055380
    163 N14         5.6980    0.0340    2.4470 n         1 MOL     -0.097049
    164 C55         6.7330   -0.5660    3.3440 c3        1 MOL     -0.196593
    165 H73         6.5220   -0.2890    4.3770 h1        1 MOL      0.080271
    166 H74         6.7140   -1.6510    3.2480 h1        1 MOL      0.080271
    167 H75         7.7180   -0.1930    3.0630 h1        1 MOL      0.080271
    168 H76         5.5400   -0.2780    1.5010 hn        1 MOL      0.066278
    169 Ca1        -2.0600   -0.0390   -0.0180 Ca        1 MOL      1.683676
    170 O24        -1.5430   -0.0140    2.6590 oh        1 MOL     -0.773397
    171 H77        -1.4380    0.1780    3.5880 ho        1 MOL      0.373917
    172 H78        -0.6520   -0.0910    2.3160 ho        1 MOL      0.373917
    173 O25        -4.5650   -0.5030    1.1490 oh        1 MOL     -0.773397
    174 H79        -4.9430   -0.9470    1.9120 ho        1 MOL      0.373917
    175 H80        -4.8200    0.4150    1.2540 ho        1 MOL      0.373917
@<TRIPOS>BOND
     1    1    2 1   
     2    1    4 1   
     3    1    5 1   
     4    1    6 1   
     5    2    3 2   
     6    2    7 1   
     7    7    8 1   
     8    7   15 1   
     9    8    9 1   
    10    8   11 1   
    11    8   16 1   
    12    9   10 2   
    13    9   19 1   
    14   11   12 1   
    15   11   17 1   
    16   11   18 1   
    17   12   13 1   
    18   12   14 1   
    19   19   20 1   
    20   19   24 1   
    21   20   21 1   
    22   20   23 1   
    23   20   25 1   
    24   21   22 2   
    25   21   29 1   
    26   23   26 1   
    27   23   27 1   
    28   23   28 1   
    29   29   30 1   
    30   29   37 1   
    31   30   31 1   
    32   30   33 1   
    33   30   38 1   
    34   31   32 2   
    35   31   41 1   
    36   33   34 1   
    37   33   39 1   
    38   33   40 1   
    39   34   35 1   
    40   34   36 1   
    41   41   42 1   
    42   41   45 1   
    43   42   43 1   
    44   42   46 1   
    45   42   47 1   
    46   43   44 2   
    47   43   48 1   
    48   48   49 1   
    49   48   56 1   
    50   49   50 1   
    51   49   52 1   
    52   49   57 1   
    53   50   51 2   
    54   50   62 1   
    55   52   53 1   
    56   52   58 1   
    57   52   59 1   
    58   53   54 1   
    59   53   55 2   
    60   54   60 1   
    61   54   61 1   
    62   62   63 1   
    63   62   66 1   
    64   63   64 1   
    65   63   67 1   
    66   63   68 1   
    67   64   65 2   
    68   64   69 1   
    69   69   70 1   
    70   69   76 1   
    71   70   71 1   
    72   70   73 1   
    73   70   77 1   
    74   71   72 2   
    75   71   83 1   
    76   73   74 1   
    77   73   75 1   
    78   73   78 1   
    79   74   80 1   
    80   74   81 1   
    81   74   82 1   
    82   75   79 1   
    83   83   84 1   
    84   83   91 1   
    85   84   85 1   
    86   84   87 1   
    87   84   92 1   
    88   85   86 2   
    89   85  102 1   
    90   87   88 1   
    91   87   89 1   
    92   87   93 1   
    93   88   90 1   
    94   88   94 1   
    95   88   95 1   
    96   89   96 1   
    97   89   97 1   
    98   89   98 1   
    99   90   99 1   
   100   90  100 1   
   101   90  101 1   
   102  102  103 1   
   103  102  110 1   
   104  103  104 1   
   105  103  106 1   
   106  103  111 1   
   107  104  105 2   
   108  104  114 1   
   109  106  107 1   
   110  106  112 1   
   111  106  113 1   
   112  107  108 1   
   113  107  109 1   
   114  114  115 1   
   115  114  125 1   
   116  115  116 1   
   117  115  118 1   
   118  115  126 1   
   119  116  117 2   
   120  116  134 1   
   121  118  119 1   
   122  118  127 1   
   123  118  128 1   
   124  119  120 ar  
   125  119  121 ar  
   126  120  122 ar  
   127  120  129 1   
   128  121  123 ar  
   129  121  130 1   
   130  122  124 ar  
   131  122  131 1   
   132  123  124 ar  
   133  123  132 1   
   134  124  133 1   
   135  134  135 1   
   136  134  140 1   
   137  135  136 1   
   138  135  138 1   
   139  135  141 1   
   140  136  137 2   
   141  136  148 1   
   142  138  139 1   
   143  138  142 1   
   144  138  143 1   
   145  139  140 1   
   146  139  144 1   
   147  139  145 1   
   148  140  146 1   
   149  140  147 1   
   150  148  149 1   
   151  148  157 1   
   152  149  150 1   
   153  149  152 1   
   154  149  158 1   
   155  150  151 2   
   156  150  163 1   
   157  152  153 1   
   158  152  159 1   
   159  152  160 1   
   160  153  154 1   
   161  153  161 1   
   162  153  162 1   
   163  154  155 1   
   164  154  156 1   
   165  163  164 1   
   166  163  168 1   
   167  164  165 1   
   168  164  166 1   
   169  164  167 1   
   170  170  171 1   
   171  170  172 1   
   172  173  174 1   
   173  173  175 1   
@<TRIPOS>SUBSTRUCTURE
     1 MOL         1 TEMP              0 ****  ****    0 ROOT
