@<TRIPOS>MOLECULE
MOL
  175   173     1     0     0
SMALL
resp


@<TRIPOS>ATOM
      1 C1          0.7680    4.1290    5.1640 c3        1 MOL     -0.363186
      2 C2          0.0730    4.0210    3.7890 c         1 MOL      0.754947
      3 O1          0.7530    4.1110    2.7870 o         1 MOL     -0.556593
      4 H1          0.1860    4.7830    5.8140 hc        1 MOL      0.085686
      5 H2          0.8400    3.1400    5.6140 hc        1 MOL      0.085686
      6 H3          1.7690    4.5430    5.0350 hc        1 MOL      0.085686
      7 N1         -1.2260    3.7780    3.7500 n         1 MOL     -0.671954
      8 C3         -2.0870    3.6280    2.5050 c3        1 MOL      0.196260
      9 C4         -2.3840    4.8810    1.8090 c         1 MOL      0.635658
     10 O2         -2.4510    5.9500    2.4680 o         1 MOL     -0.596182
     11 C5         -3.3340    2.8510    2.8370 c3        1 MOL     -0.160354
     12 C6         -4.1360    2.4410    1.6100 c         1 MOL      0.545719
     13 O3         -5.3050    2.8340    1.6100 o         1 MOL     -0.578088
     14 O4         -3.5240    1.8830    0.6610 o         1 MOL     -0.578088
     15 H4         -1.7430    3.5860    4.5940 hn        1 MOL      0.319624
     16 H5         -1.5720    2.9700    1.8070 h1        1 MOL      0.031744
     17 H6         -4.0270    3.4600    3.4040 hc        1 MOL      0.007135
     18 H7         -2.9600    2.0380    3.4580 hc        1 MOL      0.007135
     19 N2         -2.4830    4.6720    0.5150 n         1 MOL     -0.567094
     20 C7         -2.9340    5.7110   -0.4860 c3        1 MOL      0.343428
     21 C8         -3.7350    5.1290   -1.6910 c         1 MOL      0.364582
     22 O5         -3.8060    5.7430   -2.7310 o         1 MOL     -0.516550
     23 C9         -1.7390    6.4860   -0.8940 c3        1 MOL     -0.150242
     24 H8         -2.1290    3.7870    0.1920 hn        1 MOL      0.331711
     25 H9         -3.5260    6.4470    0.0620 h1        1 MOL     -0.008244
     26 H10        -1.1710    6.8740   -0.0530 hc        1 MOL      0.028518
     27 H11        -1.0710    5.8650   -1.4960 hc        1 MOL      0.028518
     28 H12        -2.1010    7.2810   -1.5450 hc        1 MOL      0.028518
     29 N3         -4.1950    3.8870   -1.5050 n         1 MOL     -0.188231
     30 C10        -5.0460    3.2590   -2.5670 c3        1 MOL      0.012045
     31 C11        -6.3070    2.3360   -2.1800 c         1 MOL      0.374843
     32 O6         -7.1740    2.0510   -3.0130 o         1 MOL     -0.526079
     33 C12        -4.1500    2.4490   -3.5680 c3        1 MOL     -0.029066
     34 C13        -3.4380    1.3040   -2.9110 c         1 MOL      0.672760
     35 O7         -4.0630    0.4600   -2.1890 o         1 MOL     -0.699815
     36 O8         -2.2430    1.2700   -2.8350 o         1 MOL     -0.699815
     37 H13        -4.0150    3.3710   -0.6550 hn        1 MOL      0.076265
     38 H14        -5.4740    4.1010   -3.0990 h1        1 MOL      0.060751
     39 H15        -3.4910    3.0640   -4.1690 hc        1 MOL      0.010160
     40 H16        -4.8470    2.0190   -4.2870 hc        1 MOL      0.010160
     41 N4         -6.2710    1.8250   -0.9530 n         1 MOL     -0.065011
     42 C14        -7.4290    1.0520   -0.4530 c3        1 MOL     -0.346058
     43 C15        -7.4400   -0.4260   -0.8710 c         1 MOL      0.493576
     44 O9         -8.4880   -1.0880   -0.6180 o         1 MOL     -0.615880
     45 H17        -5.5570    2.0460   -0.2800 hn        1 MOL      0.089286
     46 H18        -8.4350    1.3470   -0.7540 h1        1 MOL      0.150272
     47 H19        -7.3410    1.0260    0.6320 h1        1 MOL      0.150272
     48 N5         -6.3240   -0.9640   -1.3780 n         1 MOL     -0.114777
     49 C16        -6.2080   -2.4300   -1.7930 c3        1 MOL      0.000426
     50 C17        -6.1660   -3.3580   -0.6420 c         1 MOL      0.391534
     51 O10        -6.2370   -4.5930   -0.8780 o         1 MOL     -0.528847
     52 C18        -5.0900   -2.6280   -2.8950 c3        1 MOL     -0.215355
     53 C19        -3.6630   -2.4010   -2.5120 c         1 MOL      0.723798
     54 N6         -2.6880   -2.1870   -3.4010 n         1 MOL     -0.779374
     55 O11        -3.3830   -2.4170   -1.3040 o         1 MOL     -0.545143
     56 H20        -5.6400   -0.2710   -1.6430 hn        1 MOL      0.121225
     57 H21        -7.1960   -2.5550   -2.2400 h1        1 MOL      0.098991
     58 H22        -5.3110   -1.8710   -3.6550 hc        1 MOL      0.064836
     59 H23        -5.1070   -3.6210   -3.3240 hc        1 MOL      0.064836
     60 H24        -2.9510   -1.9030   -4.3420 hn        1 MOL      0.354113
     61 H25        -1.7530   -1.9500   -3.1220 hn        1 MOL      0.354113
     62 N7         -6.0610   -3.0020    0.5890 n         1 MOL     -0.194112
     63 C20        -6.0880   -3.8600    1.7230 c3        1 MOL     -0.060625
     64 C21        -4.7600   -4.5750    1.9730 c         1 MOL      0.486556
     65 O12        -4.6650   -5.5760    2.6520 o         1 MOL     -0.585678
     66 H26        -6.0360   -2.0140    0.7640 hn        1 MOL      0.224811
     67 H27        -6.8710   -4.6210    1.6730 h1        1 MOL      0.064033
     68 H28        -6.3910   -3.2700    2.5820 h1        1 MOL      0.064033
     69 N8         -3.7120   -4.0240    1.4240 n         1 MOL     -0.147633
     70 C22        -2.3570   -4.6520    1.4190 c3        1 MOL     -0.094769
     71 C23        -1.2980   -3.5810    1.3530 c         1 MOL      0.571938
     72 O13        -1.4960   -2.5990    0.6450 o         1 MOL     -0.545686
     73 C24        -2.1580   -5.5390    0.1300 c3        1 MOL      0.344892
     74 C25        -2.4810   -7.0270    0.3150 c3        1 MOL     -0.398602
     75 O14        -2.9640   -5.1680   -1.0200 oh        1 MOL     -0.549561
     76 H29        -3.8250   -3.1240    0.9870 hn        1 MOL      0.039883
     77 H30        -2.3130   -5.2330    2.3350 h1        1 MOL      0.074501
     78 H31        -1.0890   -5.4170   -0.0810 h1        1 MOL     -0.012992
     79 H32        -2.9490   -4.2060   -1.1140 ho        1 MOL      0.355063
     80 H33        -2.3990   -7.7130   -0.5260 hc        1 MOL      0.104908
     81 H34        -1.9880   -7.4850    1.1750 hc        1 MOL      0.104908
     82 H35        -3.5160   -7.0110    0.6340 hc        1 MOL      0.104908
     83 N9         -0.1530   -3.6910    2.0530 n         1 MOL     -0.546251
     84 C26         0.9090   -2.6020    2.1320 c3        1 MOL     -0.022927
     85 C27         1.8430   -2.8370    0.9490 c         1 MOL      0.638816
     86 O15         2.5700   -3.8680    0.9820 o         1 MOL     -0.611271
     87 C28         1.7270   -2.5210    3.4480 c3        1 MOL      0.290234
     88 C29         0.8920   -2.3510    4.7320 c3        1 MOL      0.308089
     89 C30         2.6410   -1.3040    3.3280 c3        1 MOL     -0.415264
     90 C31         1.4460   -2.4430    6.1810 c3        1 MOL     -0.182470
     91 H36        -0.0340   -4.6180    2.4490 hn        1 MOL      0.302965
     92 H37         0.4800   -1.6110    2.0480 h1        1 MOL      0.010403
     93 H38         2.3710   -3.3910    3.5540 hc        1 MOL     -0.050250
     94 H39         0.2940   -3.2490    4.6250 hc        1 MOL     -0.115970
     95 H40         0.2260   -1.4980    4.5740 hc        1 MOL     -0.115970
     96 H41         3.3260   -1.3310    2.4840 hc        1 MOL      0.064845
     97 H42         2.0350   -0.3970    3.3360 hc        1 MOL      0.064845
     98 H43         3.2830   -1.2690    4.2090 hc        1 MOL      0.064845
     99 H44         1.9510   -1.5230    6.4590 hc        1 MOL      0.030066
    100 H45         0.6190   -2.5820    6.8770 hc        1 MOL      0.030066
    101 H46         2.1640   -3.2650    6.2060 hc        1 MOL      0.030066
    102 N10         1.7850   -1.9470   -0.0340 n         1 MOL     -0.454462
    103 C32         2.7400   -2.0130   -1.2170 c3        1 MOL      0.149842
    104 C33         4.1460   -1.4820   -0.7810 c         1 MOL      0.229302
    105 O16         4.2330   -0.5730    0.0780 o         1 MOL     -0.164024
    106 C34         2.0790   -1.1660   -2.3610 c3        1 MOL     -0.195304
    107 C35         0.6120   -1.4630   -2.7020 c         1 MOL      0.594409
    108 O17        -0.3810   -1.0870   -1.9500 o         1 MOL     -0.614455
    109 O18         0.4230   -2.0460   -3.7950 o         1 MOL     -0.614455
    110 H47         1.1000   -1.1980   -0.0510 hn        1 MOL      0.329552
    111 H48         2.8820   -3.0600   -1.4880 h1        1 MOL      0.055706
    112 H49         2.6530   -1.4000   -3.2640 hc        1 MOL      0.051784
    113 H50         2.1500   -0.0940   -2.1300 hc        1 MOL      0.051784
    114 N11         5.1800   -1.8450   -1.5450 n         1 MOL     -0.509820
    115 C36         6.5730   -1.5740   -1.2050 c3        1 MOL      0.383126
    116 C37         6.8300   -0.0200   -1.1790 c         1 MOL      0.300976
    117 O19         7.5330    0.3580   -0.2760 o         1 MOL     -0.467823
    118 C38         7.5910   -2.2890   -2.1090 c3        1 MOL     -0.289464
    119 C39         9.0490   -2.1020   -1.6370 ca        1 MOL      0.095416
    120 C40         9.9270   -1.1800   -2.2400 ca        1 MOL     -0.162661
    121 C41         9.4230   -2.8200   -0.5210 ca        1 MOL     -0.162661
    122 C42        11.2770   -1.1080   -1.7810 ca        1 MOL     -0.065610
    123 C43        10.7130   -2.7040   -0.0360 ca        1 MOL     -0.065610
    124 C44        11.6520   -1.9090   -0.6990 ca        1 MOL     -0.186180
    125 H51         5.0090   -2.5180   -2.2690 hn        1 MOL      0.291979
    126 H52         6.6300   -1.8970   -0.1620 h1        1 MOL      0.044385
    127 H53         7.5220   -2.0090   -3.1620 hc        1 MOL      0.083365
    128 H54         7.3030   -3.3330   -2.0290 hc        1 MOL      0.083365
    129 H55         9.5780   -0.6680   -3.1340 ha        1 MOL      0.112805
    130 H56         8.7240   -3.4360    0.0350 ha        1 MOL      0.112805
    131 H57        12.0130   -0.4290   -2.1750 ha        1 MOL      0.101716
    132 H58        11.0550   -3.1790    0.8730 ha        1 MOL      0.101716
    133 H59        12.6200   -1.7900   -0.2460 ha        1 MOL      0.121077
    134 N12         6.1710    0.8310   -1.9790 n         1 MOL      0.014680
    135 C45         6.2980    2.2820   -1.8700 c3        1 MOL     -0.018477
    136 C46         5.6870    2.9050   -0.6200 c         1 MOL      0.271420
    137 O20         6.3460    3.7500   -0.0250 o         1 MOL     -0.484219
    138 C47         5.7650    2.9420   -3.1670 c3        1 MOL      0.146004
    139 C48         6.0480    1.7730   -4.1510 c3        1 MOL     -0.175125
    140 C49         5.6980    0.5970   -3.3150 c3        1 MOL     -0.003535
    141 H60         7.3520    2.5530   -1.7770 h1        1 MOL      0.047077
    142 H61         4.6940    3.1050   -3.0400 hc        1 MOL     -0.001181
    143 H62         6.2190    3.8870   -3.4650 hc        1 MOL     -0.001181
    144 H63         5.3480    1.9190   -4.9660 hc        1 MOL      0.047442
    145 H64         7.1040    1.8240   -4.4360 hc        1 MOL      0.047442
    146 H65         4.6080    0.5990   -3.2600 h1        1 MOL      0.033956
    147 H66         5.9710   -0.3540   -3.7850 h1        1 MOL      0.033956
    148 N13         4.5890    2.3290   -0.1420 n         1 MOL     -0.103864
    149 C50         3.9120    2.6670    1.1310 c3        1 MOL     -0.102830
    150 C51         4.8100    2.2130    2.3150 c         1 MOL      0.368390
    151 O21         5.0110    2.9680    3.2860 o         1 MOL     -0.566603
    152 C52         2.5580    2.0050    1.2060 c3        1 MOL     -0.037215
    153 C53         1.5990    2.4150    0.0740 c3        1 MOL     -0.371463
    154 C54         0.1850    1.8340    0.3270 c         1 MOL      0.542973
    155 O22        -0.6800    2.3220   -0.4090 o         1 MOL     -0.620920
    156 O23        -0.0480    0.6900    0.7630 o         1 MOL     -0.620920
    157 H67         4.2400    1.5400   -0.6670 hn        1 MOL      0.102161
    158 H68         3.6830    3.7260    1.2480 h1        1 MOL      0.131854
    159 H69         2.0790    2.2130    2.1650 hc        1 MOL      0.068466
    160 H70         2.6660    0.9250    1.1370 hc        1 MOL      0.068466
    161 H71         1.9130    2.0010   -0.8890 hc        1 MOL      0.140798
    162 H72         1.5150    3.4990    0.0910 hc        1 MOL      0.140798
    163 N14         5.4860    1.1170    2.1850 n         1 MOL      0.092576
    164 C55         6.4680    0.5710    3.1780 c3        1 MOL     -0.180965
    165 H73         7.1190   -0.1510    2.6850 h1        1 MOL      0.070833
    166 H74         7.0700    1.3850    3.5810 h1        1 MOL      0.070833
    167 H75         5.9310    0.0800    3.9890 h1        1 MOL      0.070833
    168 H76         5.2630    0.5600    1.3630 hn        1 MOL     -0.031403
    169 Ca1        -2.1770    0.0340   -0.5060 Ca        1 MOL      1.656671
    170 O24        -1.8570   -0.2790    2.4880 oh        1 MOL     -0.800499
    171 H77        -1.8930   -0.2590    3.4500 ho        1 MOL      0.407563
    172 H78        -1.0930    0.2630    2.2830 ho        1 MOL      0.407563
    173 O25        -4.0870   -0.9430    1.3790 oh        1 MOL     -0.800499
    174 H79        -3.2980   -0.8560    1.9050 ho        1 MOL      0.407563
    175 H80        -4.7950   -0.6630    1.9660 ho        1 MOL      0.407563
@<TRIPOS>BOND
     1    1    2 1   
     2    1    4 1   
     3    1    5 1   
     4    1    6 1   
     5    2    3 2   
     6    2    7 1   
     7    7    8 1   
     8    7   15 1   
     9    8    9 1   
    10    8   11 1   
    11    8   16 1   
    12    9   10 2   
    13    9   19 1   
    14   11   12 1   
    15   11   17 1   
    16   11   18 1   
    17   12   13 1   
    18   12   14 1   
    19   19   20 1   
    20   19   24 1   
    21   20   21 1   
    22   20   23 1   
    23   20   25 1   
    24   21   22 2   
    25   21   29 1   
    26   23   26 1   
    27   23   27 1   
    28   23   28 1   
    29   29   30 1   
    30   29   37 1   
    31   30   31 1   
    32   30   33 1   
    33   30   38 1   
    34   31   32 2   
    35   31   41 1   
    36   33   34 1   
    37   33   39 1   
    38   33   40 1   
    39   34   35 1   
    40   34   36 1   
    41   41   42 1   
    42   41   45 1   
    43   42   43 1   
    44   42   46 1   
    45   42   47 1   
    46   43   44 2   
    47   43   48 1   
    48   48   49 1   
    49   48   56 1   
    50   49   50 1   
    51   49   52 1   
    52   49   57 1   
    53   50   51 2   
    54   50   62 1   
    55   52   53 1   
    56   52   58 1   
    57   52   59 1   
    58   53   54 1   
    59   53   55 2   
    60   54   60 1   
    61   54   61 1   
    62   62   63 1   
    63   62   66 1   
    64   63   64 1   
    65   63   67 1   
    66   63   68 1   
    67   64   65 2   
    68   64   69 1   
    69   69   70 1   
    70   69   76 1   
    71   70   71 1   
    72   70   73 1   
    73   70   77 1   
    74   71   72 2   
    75   71   83 1   
    76   73   74 1   
    77   73   75 1   
    78   73   78 1   
    79   74   80 1   
    80   74   81 1   
    81   74   82 1   
    82   75   79 1   
    83   83   84 1   
    84   83   91 1   
    85   84   85 1   
    86   84   87 1   
    87   84   92 1   
    88   85   86 2   
    89   85  102 1   
    90   87   88 1   
    91   87   89 1   
    92   87   93 1   
    93   88   90 1   
    94   88   94 1   
    95   88   95 1   
    96   89   96 1   
    97   89   97 1   
    98   89   98 1   
    99   90   99 1   
   100   90  100 1   
   101   90  101 1   
   102  102  103 1   
   103  102  110 1   
   104  103  104 1   
   105  103  106 1   
   106  103  111 1   
   107  104  105 2   
   108  104  114 1   
   109  106  107 1   
   110  106  112 1   
   111  106  113 1   
   112  107  108 1   
   113  107  109 1   
   114  114  115 1   
   115  114  125 1   
   116  115  116 1   
   117  115  118 1   
   118  115  126 1   
   119  116  117 2   
   120  116  134 1   
   121  118  119 1   
   122  118  127 1   
   123  118  128 1   
   124  119  120 ar  
   125  119  121 ar  
   126  120  122 ar  
   127  120  129 1   
   128  121  123 ar  
   129  121  130 1   
   130  122  124 ar  
   131  122  131 1   
   132  123  124 ar  
   133  123  132 1   
   134  124  133 1   
   135  134  135 1   
   136  134  140 1   
   137  135  136 1   
   138  135  138 1   
   139  135  141 1   
   140  136  137 2   
   141  136  148 1   
   142  138  139 1   
   143  138  142 1   
   144  138  143 1   
   145  139  140 1   
   146  139  144 1   
   147  139  145 1   
   148  140  146 1   
   149  140  147 1   
   150  148  149 1   
   151  148  157 1   
   152  149  150 1   
   153  149  152 1   
   154  149  158 1   
   155  150  151 2   
   156  150  163 1   
   157  152  153 1   
   158  152  159 1   
   159  152  160 1   
   160  153  154 1   
   161  153  161 1   
   162  153  162 1   
   163  154  155 1   
   164  154  156 1   
   165  163  164 1   
   166  163  168 1   
   167  164  165 1   
   168  164  166 1   
   169  164  167 1   
   170  170  171 1   
   171  170  172 1   
   172  173  174 1   
   173  173  175 1   
@<TRIPOS>SUBSTRUCTURE
     1 MOL         1 TEMP              0 ****  ****    0 ROOT
