@<TRIPOS>MOLECULE
MOL
  176   174     1     0     0
SMALL
resp


@<TRIPOS>ATOM
      1 C1          1.7750    2.5720    6.0990 c3        1 MOL     -0.236597
      2 C2          1.4530    2.2660    4.6490 c         1 MOL      0.831917
      3 O1          2.3580    1.8910    3.9510 o         1 MOL     -0.632104
      4 H1          1.4590    3.5890    6.3340 hc        1 MOL      0.055886
      5 H2          1.2480    1.8700    6.7450 hc        1 MOL      0.055886
      6 H3          2.8480    2.4790    6.2610 hc        1 MOL      0.055886
      7 N1          0.2130    2.4010    4.1590 n         1 MOL     -0.683941
      8 C3         -0.4630    2.2520    2.8820 c3        1 MOL     -0.003575
      9 C4         -0.2310    3.5930    2.0650 c         1 MOL      0.659393
     10 O2         -0.6230    4.6400    2.4970 o         1 MOL     -0.580028
     11 C5         -1.9500    1.8220    3.1020 c3        1 MOL     -0.057054
     12 C6         -2.6610    1.5790    1.7750 c         1 MOL      0.975848
     13 O3         -2.0500    1.5730    0.7040 o         1 MOL     -0.820837
     14 O4         -3.9060    1.3560    1.8450 o         1 MOL     -0.820837
     15 H4         -0.4700    2.6680    4.8600 hn        1 MOL      0.306596
     16 H5          0.0250    1.3840    2.4360 h1        1 MOL      0.089319
     17 H6         -2.5420    2.6230    3.5570 hc        1 MOL      0.007489
     18 H7         -2.0480    0.9030    3.6750 hc        1 MOL      0.007489
     19 N2          0.3340    3.5210    0.8680 n         1 MOL     -0.179485
     20 C7          0.9760    4.6330    0.1730 c3        1 MOL     -0.248900
     21 C8         -0.0200    5.2310   -0.8080 c         1 MOL      0.601320
     22 O5          0.1340    6.3750   -1.0370 o         1 MOL     -0.554302
     23 C9          2.2440    4.1670   -0.5540 c3        1 MOL      0.002258
     24 C10         3.0970    5.3820   -0.9410 c3        1 MOL     -0.176198
     25 C11         4.3770    4.9230   -1.6510 c3        1 MOL      0.008942
     26 C12         5.1760    6.1150   -1.8970 c3        1 MOL     -0.031960
     27 N3          6.3640    5.8070   -2.6680 n4        1 MOL     -0.296879
     28 H8          0.5730    2.6020    0.5230 hn        1 MOL      0.045108
     29 H9          1.2060    5.4170    0.8990 h1        1 MOL      0.141417
     30 H10         2.0000    3.5920   -1.4470 hc        1 MOL      0.111079
     31 H11         2.8790    3.5660    0.0960 hc        1 MOL      0.111079
     32 H12         3.3810    5.9250   -0.0460 hc        1 MOL      0.070323
     33 H13         2.5540    6.1060   -1.5460 hc        1 MOL      0.070323
     34 H14         4.0590    4.4020   -2.5560 hc        1 MOL      0.042808
     35 H15         4.8900    4.2710   -0.9490 hc        1 MOL      0.042808
     36 H16         5.4610    6.5410   -0.9270 hx        1 MOL      0.100164
     37 H17         4.5390    6.7540   -2.5150 hx        1 MOL      0.100164
     38 H18         6.9430    5.1520   -2.1590 hn        1 MOL      0.314072
     39 H19         6.0610    5.3190   -3.5040 hn        1 MOL      0.314072
     40 H20         6.8280    6.6470   -2.9890 hn        1 MOL      0.314072
     41 N4         -0.9210    4.4300   -1.4170 n         1 MOL     -0.469003
     42 C13        -2.0730    4.7590   -2.2710 c3        1 MOL      0.217016
     43 C14        -3.3860    4.8340   -1.4440 c         1 MOL      0.453954
     44 O6         -4.2500    5.5860   -1.9070 o         1 MOL     -0.584441
     45 C15        -2.3080    3.7610   -3.4690 c3        1 MOL     -0.306566
     46 C16        -2.0970    2.3140   -2.9520 c         1 MOL      0.791144
     47 O7         -1.0010    1.7110   -3.0610 o         1 MOL     -0.792788
     48 O8         -2.9550    1.8440   -2.2720 o         1 MOL     -0.792788
     49 H21        -0.7680    3.4510   -1.2410 hn        1 MOL      0.308084
     50 H22        -1.9190    5.7600   -2.6850 h1        1 MOL      0.050548
     51 H23        -1.6940    4.0170   -4.3420 hc        1 MOL      0.085745
     52 H24        -3.3530    3.8580   -3.7590 hc        1 MOL      0.085745
     53 N5         -3.6040    4.0820   -0.3830 n         1 MOL     -0.054481
     54 C17        -4.7790    4.0850    0.5180 c3        1 MOL     -0.285070
     55 C18        -5.7710    2.9470    0.2940 c         1 MOL      0.613352
     56 O9         -6.7310    2.9000    1.1100 o         1 MOL     -0.559524
     57 H25        -2.9820    3.2830   -0.3620 hn        1 MOL     -0.072976
     58 H26        -5.2210    5.0790    0.4950 h1        1 MOL      0.151280
     59 H27        -4.3030    3.9400    1.4920 h1        1 MOL      0.151280
     60 N6         -5.5860    2.0630   -0.7840 n         1 MOL     -0.500963
     61 C19        -6.5100    0.9850   -1.1290 c3        1 MOL      0.060000
     62 C20        -6.7610    0.0070   -0.0080 c         1 MOL      0.370097
     63 O10        -7.7390   -0.7250   -0.1770 o         1 MOL     -0.548386
     64 C21        -6.0600    0.3250   -2.4390 c3        1 MOL     -0.297046
     65 C22        -5.2550   -0.9420   -2.2260 c         1 MOL      0.658263
     66 N7         -5.8320   -1.9840   -2.6610 n         1 MOL     -0.775480
     67 O11        -4.1510   -1.0590   -1.6660 o         1 MOL     -0.630869
     68 H28        -4.7050    2.2370   -1.2390 hn        1 MOL      0.352592
     69 H29        -7.4390    1.5200   -1.3130 h1        1 MOL      0.120347
     70 H30        -5.4900    1.0010   -3.0710 hc        1 MOL      0.113581
     71 H31        -6.9570   -0.0230   -2.9550 hc        1 MOL      0.113581
     72 H32        -6.7870   -1.9350   -3.0030 hn        1 MOL      0.374938
     73 H33        -5.3590   -2.8390   -2.4280 hn        1 MOL      0.374938
     74 N8         -6.0650   -0.0630    1.1360 n         1 MOL     -0.015026
     75 C23        -6.5540   -0.9370    2.2020 c3        1 MOL     -0.324220
     76 C24        -5.7390   -2.2000    2.2670 c         1 MOL      0.601098
     77 O12        -6.1040   -3.1050    3.0010 o         1 MOL     -0.581308
     78 H34        -5.2980    0.5360    1.4020 hn        1 MOL      0.283670
     79 H35        -7.5920   -1.2510    2.1090 h1        1 MOL      0.135957
     80 H36        -6.3500   -0.4360    3.1550 h1        1 MOL      0.135957
     81 N9         -4.5680   -2.2200    1.6360 n         1 MOL     -0.330650
     82 C25        -3.4960   -3.2470    1.8620 c3        1 MOL     -0.048196
     83 C26        -2.1710   -2.6060    1.7060 c         1 MOL      0.881540
     84 O13        -1.9960   -1.5770    1.0100 o         1 MOL     -0.818926
     85 C27        -3.7680   -4.4740    1.0600 c3        1 MOL     -0.049427
     86 C28        -3.7890   -4.3700   -0.4710 ca        1 MOL      0.159521
     87 C29        -2.6340   -4.2190   -1.1960 ca        1 MOL     -0.251634
     88 C30        -5.0500   -4.6070   -1.0570 ca        1 MOL     -0.251634
     89 C31        -2.6580   -4.6640   -2.5650 ca        1 MOL     -0.162046
     90 C32        -5.0530   -4.9020   -2.4230 ca        1 MOL     -0.162046
     91 C33        -3.8700   -4.9710   -3.1720 ca        1 MOL      0.242178
     92 O14        -3.9610   -5.3100   -4.4760 oh        1 MOL     -0.486643
     93 H37        -4.3030   -1.4450    1.0410 hn        1 MOL      0.153519
     94 H38        -3.5700   -3.6180    2.8830 h1        1 MOL      0.064453
     95 H39        -4.6790   -5.0050    1.3770 hc        1 MOL      0.038277
     96 H40        -2.9730   -5.1560    1.3560 hc        1 MOL      0.038277
     97 H41        -1.6810   -3.9990   -0.7290 ha        1 MOL      0.170412
     98 H42        -6.0020   -4.6530   -0.5550 ha        1 MOL      0.170412
     99 H43        -1.7540   -4.6670   -3.1630 ha        1 MOL      0.114005
    100 H44        -5.9990   -5.1570   -2.8500 ha        1 MOL      0.114005
    101 H45        -4.8600   -5.5570   -4.6950 ho        1 MOL      0.365178
    102 N10        -1.1830   -3.2460    2.3170 n         1 MOL     -0.579055
    103 C34         0.2730   -2.8220    2.1710 c3        1 MOL      0.373922
    104 C35         0.9630   -3.6310    1.0610 c         1 MOL      0.185766
    105 O15         0.5230   -4.7340    0.7800 o         1 MOL     -0.501573
    106 C36         1.1600   -2.9170    3.4940 c3        1 MOL      0.043482
    107 C37         0.2500   -2.5790    4.7670 c3        1 MOL     -0.492765
    108 C38         2.3180   -1.9190    3.4520 c3        1 MOL     -0.157846
    109 C39        -0.6840   -1.3540    4.7270 c3        1 MOL      0.182458
    110 H46        -1.4950   -3.9360    2.9850 hn        1 MOL      0.310697
    111 H47         0.2070   -1.8220    1.7500 h1        1 MOL     -0.005294
    112 H48         1.5120   -3.9360    3.5970 hc        1 MOL      0.045367
    113 H49         0.8710   -2.2640    5.6110 hc        1 MOL      0.138871
    114 H50        -0.2030   -3.5190    5.0800 hc        1 MOL      0.138871
    115 H51         3.1290   -2.4420    2.9510 hc        1 MOL      0.048671
    116 H52         2.1100   -0.9760    2.9450 hc        1 MOL      0.048671
    117 H53         2.6850   -1.7530    4.4650 hc        1 MOL      0.048671
    118 H54        -0.3840   -0.5980    3.9990 hc        1 MOL     -0.025130
    119 H55        -1.6580   -1.7400    4.4210 hc        1 MOL     -0.025130
    120 H56        -0.7110   -0.8030    5.6640 hc        1 MOL     -0.025130
    121 N11         2.0660   -3.1580    0.5480 n         1 MOL     -0.042495
    122 C40         2.8690   -3.7790   -0.4720 c3        1 MOL      0.089623
    123 C41         4.3310   -3.5280   -0.1980 c         1 MOL      0.212379
    124 O16         4.6560   -2.6610    0.6690 o         1 MOL     -0.313758
    125 C42         2.4960   -3.3300   -1.8990 c3        1 MOL      0.173297
    126 O17         1.0980   -3.3560   -2.0300 oh        1 MOL     -0.546484
    127 H57         2.4770   -2.3900    1.0650 hn        1 MOL      0.103121
    128 H58         2.6370   -4.8480   -0.4530 h1        1 MOL      0.068843
    129 H59         3.0210   -4.0050   -2.5790 h1        1 MOL      0.009062
    130 H60         2.8390   -2.3540   -2.2360 h1        1 MOL      0.009062
    131 H61         0.7970   -2.5170   -1.6720 ho        1 MOL      0.397406
    132 N12         5.2540   -4.3110   -0.8470 n         1 MOL     -0.372394
    133 C43         6.7310   -4.2110   -0.5780 c3        1 MOL      0.119014
    134 C44         7.2770   -2.8080   -0.8270 c         1 MOL      0.422370
    135 O18         8.0310   -2.2770    0.0170 o         1 MOL     -0.468140
    136 C45         7.4310   -5.2690   -1.5090 c3        1 MOL     -0.433600
    137 H62         4.9380   -4.9850   -1.5300 hn        1 MOL      0.284583
    138 H63         6.8170   -4.3820    0.4970 h1        1 MOL      0.096344
    139 H64         8.4920   -5.2100   -1.2880 hc        1 MOL      0.137431
    140 H65         7.0610   -6.2800   -1.3220 hc        1 MOL      0.137431
    141 H66         7.3300   -5.0790   -2.5700 hc        1 MOL      0.137431
    142 N13         6.8610   -2.2220   -2.0100 n         1 MOL     -0.308419
    143 C46         7.2720   -0.8980   -2.4200 c3        1 MOL      0.053724
    144 C47         6.7340    0.2170   -1.5060 c         1 MOL      0.291576
    145 O19         7.2680    1.3590   -1.4600 o         1 MOL     -0.541799
    146 C48         6.8420   -0.6720   -3.8170 c3        1 MOL     -0.205501
    147 H67         6.1820   -2.7150   -2.5620 hn        1 MOL      0.203990
    148 H68         8.3580   -0.8030   -2.4560 h1        1 MOL      0.112556
    149 H69         5.7640   -0.6570   -3.9770 hc        1 MOL      0.066755
    150 H70         7.1030    0.2970   -4.2440 hc        1 MOL      0.066755
    151 H71         7.2850   -1.4500   -4.4460 hc        1 MOL      0.066755
    152 N14         5.7160   -0.0760   -0.7280 n         1 MOL     -0.002020
    153 C49         5.1200    0.8310    0.2810 c3        1 MOL     -0.282250
    154 C50         5.8450    0.7330    1.5910 c         1 MOL      0.674000
    155 O20         6.0140    1.7000    2.3120 o         1 MOL     -0.567365
    156 C51         3.6370    0.5980    0.4340 c3        1 MOL      0.230673
    157 C52         2.9220    0.4500   -0.9410 c3        1 MOL     -0.015754
    158 C53         1.4630    0.2350   -0.8680 c         1 MOL      0.879788
    159 O21         0.7200    1.2230   -0.6290 o         1 MOL     -0.771619
    160 O22         1.0130   -0.8900   -1.0170 o         1 MOL     -0.771619
    161 H72         5.2040   -0.9240   -0.9080 hn        1 MOL      0.166261
    162 H73         5.3100    1.8900    0.0760 h1        1 MOL      0.068144
    163 H74         3.1470    1.4050    0.9880 hc        1 MOL     -0.025129
    164 H75         3.4240   -0.2980    1.0240 hc        1 MOL     -0.025129
    165 H76         3.3040   -0.4270   -1.4580 hc        1 MOL     -0.087980
    166 H77         3.0520    1.3940   -1.4720 hc        1 MOL     -0.087980
    167 N15         6.2630   -0.4760    1.9630 n         1 MOL     -0.252315
    168 C54         7.1180   -0.7880    3.0540 c3        1 MOL     -0.293717
    169 H78         7.9160   -1.4470    2.7130 h1        1 MOL      0.117632
    170 H79         7.5510    0.1300    3.4500 h1        1 MOL      0.117632
    171 H80         6.5440   -1.2860    3.8340 h1        1 MOL      0.117632
    172 H81         6.1000   -1.2170    1.2920 hn        1 MOL      0.152458
    173 Ca1        -1.5740   -0.0630   -1.2090 Ca        1 MOL      1.835318
    174 O23        -1.2990   -1.4650   -3.2710 oh        1 MOL     -0.921586
    175 H82        -2.1010   -1.8220   -3.6320 ho        1 MOL      0.444328
    176 H83        -0.6890   -1.4230   -4.0150 ho        1 MOL      0.444328
@<TRIPOS>BOND
     1    1    2 1   
     2    1    4 1   
     3    1    5 1   
     4    1    6 1   
     5    2    3 2   
     6    2    7 1   
     7    7    8 1   
     8    7   15 1   
     9    8    9 1   
    10    8   11 1   
    11    8   16 1   
    12    9   10 2   
    13    9   19 1   
    14   11   12 1   
    15   11   17 1   
    16   11   18 1   
    17   12   13 1   
    18   12   14 1   
    19   19   20 1   
    20   19   28 1   
    21   20   21 1   
    22   20   23 1   
    23   20   29 1   
    24   21   22 2   
    25   21   41 1   
    26   23   24 1   
    27   23   30 1   
    28   23   31 1   
    29   24   25 1   
    30   24   32 1   
    31   24   33 1   
    32   25   26 1   
    33   25   34 1   
    34   25   35 1   
    35   26   27 1   
    36   26   36 1   
    37   26   37 1   
    38   27   38 1   
    39   27   39 1   
    40   27   40 1   
    41   41   42 1   
    42   41   49 1   
    43   42   43 1   
    44   42   45 1   
    45   42   50 1   
    46   43   44 2   
    47   43   53 1   
    48   45   46 1   
    49   45   51 1   
    50   45   52 1   
    51   46   47 1   
    52   46   48 1   
    53   53   54 1   
    54   53   57 1   
    55   54   55 1   
    56   54   58 1   
    57   54   59 1   
    58   55   56 2   
    59   55   60 1   
    60   60   61 1   
    61   60   68 1   
    62   61   62 1   
    63   61   64 1   
    64   61   69 1   
    65   62   63 2   
    66   62   74 1   
    67   64   65 1   
    68   64   70 1   
    69   64   71 1   
    70   65   66 1   
    71   65   67 2   
    72   66   72 1   
    73   66   73 1   
    74   74   75 1   
    75   74   78 1   
    76   75   76 1   
    77   75   79 1   
    78   75   80 1   
    79   76   77 2   
    80   76   81 1   
    81   81   82 1   
    82   81   93 1   
    83   82   83 1   
    84   82   85 1   
    85   82   94 1   
    86   83   84 2   
    87   83  102 1   
    88   85   86 1   
    89   85   95 1   
    90   85   96 1   
    91   86   87 ar  
    92   86   88 ar  
    93   87   89 ar  
    94   87   97 1   
    95   88   90 ar  
    96   88   98 1   
    97   89   91 ar  
    98   89   99 1   
    99   90   91 ar  
   100   90  100 1   
   101   91   92 1   
   102   92  101 1   
   103  102  103 1   
   104  102  110 1   
   105  103  104 1   
   106  103  106 1   
   107  103  111 1   
   108  104  105 2   
   109  104  121 1   
   110  106  107 1   
   111  106  108 1   
   112  106  112 1   
   113  107  109 1   
   114  107  113 1   
   115  107  114 1   
   116  108  115 1   
   117  108  116 1   
   118  108  117 1   
   119  109  118 1   
   120  109  119 1   
   121  109  120 1   
   122  121  122 1   
   123  121  127 1   
   124  122  123 1   
   125  122  125 1   
   126  122  128 1   
   127  123  124 2   
   128  123  132 1   
   129  125  126 1   
   130  125  129 1   
   131  125  130 1   
   132  126  131 1   
   133  132  133 1   
   134  132  137 1   
   135  133  134 1   
   136  133  136 1   
   137  133  138 1   
   138  134  135 2   
   139  134  142 1   
   140  136  139 1   
   141  136  140 1   
   142  136  141 1   
   143  142  143 1   
   144  142  147 1   
   145  143  144 1   
   146  143  146 1   
   147  143  148 1   
   148  144  145 2   
   149  144  152 1   
   150  146  149 1   
   151  146  150 1   
   152  146  151 1   
   153  152  153 1   
   154  152  161 1   
   155  153  154 1   
   156  153  156 1   
   157  153  162 1   
   158  154  155 2   
   159  154  167 1   
   160  156  157 1   
   161  156  163 1   
   162  156  164 1   
   163  157  158 1   
   164  157  165 1   
   165  157  166 1   
   166  158  159 1   
   167  158  160 1   
   168  167  168 1   
   169  167  172 1   
   170  168  169 1   
   171  168  170 1   
   172  168  171 1   
   173  174  175 1   
   174  174  176 1   
@<TRIPOS>SUBSTRUCTURE
     1 MOL         1 TEMP              0 ****  ****    0 ROOT
