@<TRIPOS>MOLECULE
MOL
  179   176     1     0     0
SMALL
resp


@<TRIPOS>ATOM
      1 C1          1.0060    3.9230    5.2180 c3        1 MOL     -0.306513
      2 C2          0.5500    3.4160    3.8770 c         1 MOL      0.603917
      3 O1          1.3990    3.2570    3.0180 o         1 MOL     -0.529122
      4 H1          1.6540    3.1820    5.6850 hc        1 MOL      0.078442
      5 H2          1.5560    4.8540    5.0870 hc        1 MOL      0.078442
      6 H3          0.1380    4.0980    5.8550 hc        1 MOL      0.078442
      7 N1         -0.7720    3.2130    3.6880 n         1 MOL     -0.503297
      8 C3         -1.2870    2.7420    2.4000 c3        1 MOL      0.183983
      9 C4         -1.8560    3.8630    1.6280 c         1 MOL      0.300035
     10 O2         -3.0360    4.2380    1.8140 o         1 MOL     -0.457246
     11 C5         -2.3880    1.6750    2.6320 c3        1 MOL     -0.296288
     12 C6         -3.1310    1.0750    1.3540 c         1 MOL      1.077782
     13 O3         -2.7090    1.3250    0.2140 o         1 MOL     -0.803800
     14 O4         -4.0950    0.3110    1.5790 o         1 MOL     -0.803800
     15 H4         -1.4310    3.2720    4.4450 hn        1 MOL      0.336892
     16 H5         -0.5180    2.2330    1.8130 h1        1 MOL     -0.039026
     17 H6         -3.1940    2.1300    3.2060 hc        1 MOL      0.046337
     18 H7         -1.9150    0.8570    3.1780 hc        1 MOL      0.046337
     19 N2         -0.9870    4.5140    0.8570 n         1 MOL     -0.193516
     20 C7         -1.1900    5.9810    0.3190 c3        1 MOL      0.022686
     21 C8         -2.2480    6.1870   -0.7740 c         1 MOL      0.320957
     22 O5         -2.7370    7.2970   -1.0100 o         1 MOL     -0.515088
     23 C9          0.1600    6.4640   -0.2210 c3        1 MOL     -0.314472
     24 C10         1.3100    6.5510    0.8030 c3        1 MOL      0.096923
     25 C11         1.0140    7.3050    2.1180 c3        1 MOL     -0.095573
     26 C12         0.6900    8.7260    1.9220 c3        1 MOL      0.091163
     27 N3          1.7930    9.6180    1.4200 n4        1 MOL     -0.361973
     28 H8         -0.0500    4.1760    0.6740 hn        1 MOL      0.298149
     29 H9         -1.5140    6.5340    1.2010 h1        1 MOL      0.088544
     30 H10        -0.0110    7.3380   -0.8480 hc        1 MOL      0.112879
     31 H11         0.4130    5.6570   -0.9090 hc        1 MOL      0.112879
     32 H12         2.2610    6.8830    0.3690 hc        1 MOL      0.014360
     33 H13         1.4720    5.5760    1.2590 hc        1 MOL      0.014360
     34 H14         1.9350    7.2720    2.6960 hc        1 MOL      0.052185
     35 H15         0.1980    6.8050    2.6590 hc        1 MOL      0.052185
     36 H16         0.3930    9.1670    2.8680 hx        1 MOL      0.063797
     37 H17        -0.1740    8.7900    1.2600 hx        1 MOL      0.063797
     38 H18         2.4770    9.7990    2.1380 hn        1 MOL      0.324684
     39 H19         2.2550    9.2210    0.6170 hn        1 MOL      0.324684
     40 H20         1.4460   10.5340    1.2000 hn        1 MOL      0.324684
     41 N4         -2.4900    5.0670   -1.4590 n         1 MOL     -0.108342
     42 C13        -3.4370    4.8940   -2.5370 c3        1 MOL      0.154031
     43 C14        -4.8060    4.3860   -2.0100 c         1 MOL      0.375776
     44 O6         -5.8010    4.6490   -2.6590 o         1 MOL     -0.516401
     45 C15        -2.9650    3.8090   -3.5710 c3        1 MOL     -0.387845
     46 C16        -2.4080    2.5620   -2.9180 c         1 MOL      0.809825
     47 O7         -3.0070    1.4610   -2.7750 o         1 MOL     -0.751481
     48 O8         -1.3090    2.6370   -2.3780 o         1 MOL     -0.751481
     49 H21        -1.9720    4.2240   -1.2700 hn        1 MOL      0.126368
     50 H22        -3.7360    5.8490   -2.9720 h1        1 MOL      0.045941
     51 H23        -2.1920    4.3390   -4.1390 hc        1 MOL      0.106064
     52 H24        -3.8090    3.5470   -4.2050 hc        1 MOL      0.106064
     53 N5         -4.7580    3.5990   -0.9200 n         1 MOL      0.021935
     54 C17        -5.9530    2.7720   -0.4550 c3        1 MOL     -0.277875
     55 C18        -6.2530    1.5090   -1.3100 c         1 MOL      0.650818
     56 O9         -6.8890    1.5820   -2.3330 o         1 MOL     -0.527094
     57 H25        -3.9200    3.5830   -0.3630 hn        1 MOL     -0.005015
     58 H26        -6.8430    3.3850   -0.6070 h1        1 MOL      0.105805
     59 H27        -5.8650    2.5790    0.6090 h1        1 MOL      0.105805
     60 N6         -5.7980    0.3220   -0.8770 n         1 MOL     -0.330945
     61 C19        -6.2630   -0.9890   -1.2510 c3        1 MOL     -0.126042
     62 C20        -6.3500   -1.9900   -0.0860 c         1 MOL      0.471015
     63 O10        -6.8810   -3.1000   -0.2850 o         1 MOL     -0.505230
     64 C21        -5.5590   -1.5700   -2.4720 c3        1 MOL      0.010868
     65 C22        -4.1000   -1.9130   -2.3020 c         1 MOL      0.552297
     66 N7         -3.4910   -2.6730   -3.1900 n         1 MOL     -0.714782
     67 O11        -3.4440   -1.4960   -1.3660 o         1 MOL     -0.481186
     68 H28        -5.0950    0.3960   -0.1570 hn        1 MOL      0.121488
     69 H29        -7.2920   -0.8160   -1.5760 h1        1 MOL      0.114273
     70 H30        -5.6650   -0.8190   -3.2510 hc        1 MOL      0.037436
     71 H31        -6.1190   -2.4230   -2.8530 hc        1 MOL      0.037436
     72 H32        -3.9280   -2.9140   -4.0730 hn        1 MOL      0.327297
     73 H33        -2.5090   -2.8500   -3.0450 hn        1 MOL      0.327297
     74 N8         -5.8870   -1.6680    1.0920 n         1 MOL     -0.414758
     75 C23        -5.6860   -2.6310    2.1750 c3        1 MOL     -0.002106
     76 C24        -4.4030   -3.4240    2.2360 c         1 MOL      0.652609
     77 O12        -4.2910   -4.3390    3.0050 o         1 MOL     -0.577191
     78 H34        -5.4360   -0.7670    1.1500 hn        1 MOL      0.335638
     79 H35        -6.5110   -3.3430    2.2120 h1        1 MOL      0.068476
     80 H36        -5.7090   -2.2710    3.2000 h1        1 MOL      0.068476
     81 N9         -3.4000   -3.0200    1.4460 n         1 MOL     -0.589419
     82 C25        -2.1580   -3.7430    1.3350 c3        1 MOL      0.261169
     83 C26        -1.0410   -2.7370    1.0810 c         1 MOL      0.604937
     84 O13        -1.2110   -1.6410    0.5660 o         1 MOL     -0.772483
     85 C27        -2.2670   -4.9100    0.3500 c3        1 MOL     -0.031777
     86 C28        -3.3820   -5.9060    0.5450 ca        1 MOL      0.127400
     87 C29        -4.5650   -5.7130   -0.2060 ca        1 MOL     -0.214340
     88 C30        -3.0930   -7.0630    1.2670 ca        1 MOL     -0.214340
     89 C31        -5.5780   -6.6500    0.0880 ca        1 MOL     -0.268480
     90 C32        -4.1440   -7.9990    1.3850 ca        1 MOL     -0.268480
     91 C33        -5.4000   -7.7310    0.9200 ca        1 MOL      0.398863
     92 O14        -6.4590   -8.5690    1.2690 oh        1 MOL     -0.495773
     93 H37        -3.4990   -2.1420    0.9530 hn        1 MOL      0.358181
     94 H38        -1.9590   -4.2900    2.2610 h1        1 MOL      0.007672
     95 H39        -1.3270   -5.4530    0.3810 hc        1 MOL     -0.011226
     96 H40        -2.2990   -4.5360   -0.6690 hc        1 MOL     -0.011226
     97 H41        -4.8580   -4.8650   -0.8140 ha        1 MOL      0.157392
     98 H42        -2.2290   -7.1820    1.9090 ha        1 MOL      0.157392
     99 H43        -6.5560   -6.5230   -0.3590 ha        1 MOL      0.141116
    100 H44        -4.0050   -8.8660    2.0290 ha        1 MOL      0.141116
    101 H45        -6.1170   -9.2980    1.7890 ho        1 MOL      0.335387
    102 N10         0.2040   -3.0890    1.4960 n         1 MOL     -0.565946
    103 C34         1.3790   -2.2850    1.3900 c3        1 MOL      0.002590
    104 C35         2.5400   -3.2820    0.9870 c         1 MOL      0.524992
    105 O15         2.7320   -4.2870    1.6920 o         1 MOL     -0.530934
    106 C36         1.6760   -1.5690    2.7390 c3        1 MOL     -0.017846
    107 C37         0.7110   -0.5170    3.2060 c3        1 MOL      0.146994
    108 C38         3.0900   -0.9310    2.6290 c3        1 MOL     -0.359657
    109 C39         0.8720   -0.0740    4.6560 c3        1 MOL     -0.222503
    110 H46         0.3110   -3.9120    2.0570 hn        1 MOL      0.307562
    111 H47         1.2980   -1.5300    0.5990 h1        1 MOL      0.185370
    112 H48         1.8160   -2.3600    3.4770 hc        1 MOL      0.059612
    113 H49        -0.2910   -0.9330    3.0960 hc        1 MOL      0.021673
    114 H50         0.7570    0.4290    2.6600 hc        1 MOL      0.021673
    115 H51         3.3290   -0.5340    3.6170 hc        1 MOL      0.087017
    116 H52         3.8320   -1.6850    2.3760 hc        1 MOL      0.087017
    117 H53         2.9860   -0.1560    1.8780 hc        1 MOL      0.087017
    118 H54         1.8130    0.4800    4.7350 hc        1 MOL      0.050415
    119 H55         0.0390    0.5740    4.9280 hc        1 MOL      0.050415
    120 H56         0.8850   -0.9250    5.3390 hc        1 MOL      0.050415
    121 N11         3.2830   -2.9650   -0.0920 n         1 MOL     -0.288428
    122 C40         4.4760   -3.6630   -0.5270 c3        1 MOL      0.149569
    123 C41         5.7470   -3.1530    0.0900 c         1 MOL      0.445806
    124 O16         5.8050   -1.9790    0.5290 o         1 MOL     -0.421037
    125 C42         4.5920   -3.6570   -2.0360 c3        1 MOL     -0.430992
    126 O17         4.6890   -2.3490   -2.4860 oh        1 MOL     -0.329496
    127 H57         2.9970   -2.1680   -0.6380 hn        1 MOL      0.173979
    128 H58         4.4550   -4.6580   -0.0910 h1        1 MOL      0.039128
    129 H59         3.6830   -4.1790   -2.3360 h1        1 MOL      0.175310
    130 H60         5.4700   -4.2600   -2.3000 h1        1 MOL      0.175310
    131 H61         4.4700   -2.2760   -3.4200 ho        1 MOL      0.388892
    132 N12         6.8930   -3.8460    0.0510 n         1 MOL     -0.423155
    133 C43         8.1490   -3.2700    0.4620 c3        1 MOL      0.184614
    134 C44         8.6020   -2.1180   -0.5190 c         1 MOL      0.367851
    135 O18         9.5190   -1.3130   -0.1880 o         1 MOL     -0.489994
    136 C45         9.1190   -4.4470    0.5500 c3        1 MOL     -0.472919
    137 H62         6.9010   -4.8080   -0.2790 hn        1 MOL      0.282241
    138 H63         8.0690   -2.8210    1.4490 h1        1 MOL      0.104086
    139 H64         8.9300   -4.7620    1.5770 hc        1 MOL      0.139772
    140 H65         8.9730   -5.2700   -0.1470 hc        1 MOL      0.139772
    141 H66        10.1680   -4.1250    0.4820 hc        1 MOL      0.139772
    142 N13         8.0500   -2.1100   -1.7350 n         1 MOL     -0.283010
    143 C46         8.2090   -0.8630   -2.5360 c3        1 MOL      0.059012
    144 C47         7.4260    0.3510   -2.0960 c         1 MOL      0.254125
    145 O19         7.9860    1.4890   -1.9610 o         1 MOL     -0.496253
    146 C48         7.8680   -1.2010   -3.9600 c3        1 MOL     -0.051164
    147 H67         7.4150   -2.8290   -2.0610 hn        1 MOL      0.215120
    148 H68         9.2830   -0.6760   -2.5360 h1        1 MOL      0.117102
    149 H69         8.2450   -0.4450   -4.6440 hc        1 MOL      0.015369
    150 H70         8.4090   -2.1010   -4.2650 hc        1 MOL      0.015369
    151 H71         6.8000   -1.3070   -4.1490 hc        1 MOL      0.015369
    152 N14         6.2270    0.1760   -1.6150 n         1 MOL      0.066565
    153 C49         5.4200    1.2140   -0.9240 c3        1 MOL     -0.129628
    154 C50         6.0730    1.6680    0.3630 c         1 MOL      0.418461
    155 O20         6.1820    2.8780    0.6570 o         1 MOL     -0.563578
    156 C51         3.9780    0.7510   -0.6810 c3        1 MOL      0.063351
    157 C52         3.1390    0.6180   -1.9450 c3        1 MOL     -0.173259
    158 C53         1.6740    0.1510   -1.5870 c         1 MOL      0.662394
    159 O21         1.0000    0.8770   -0.8770 o         1 MOL     -0.702254
    160 O22         1.1250   -0.8470   -2.0940 o         1 MOL     -0.702254
    161 H72         5.9050   -0.7770   -1.5880 hn        1 MOL      0.006017
    162 H73         5.3550    2.0720   -1.6000 h1        1 MOL      0.098494
    163 H74         3.4420    1.4540   -0.0380 hc        1 MOL      0.053229
    164 H75         4.0100   -0.2510   -0.2530 hc        1 MOL      0.053229
    165 H76         3.6880    0.0030   -2.6620 hc        1 MOL      0.016043
    166 H77         3.1040    1.6410   -2.3230 hc        1 MOL      0.016043
    167 N15         6.5990    0.7650    1.1710 n         1 MOL      0.016880
    168 C54         7.2410    1.1630    2.3660 c3        1 MOL     -0.434300
    169 H78         7.9560    0.3970    2.6660 h1        1 MOL      0.142918
    170 H79         7.7640    2.1040    2.2020 h1        1 MOL      0.142918
    171 H80         6.4970    1.2920    3.1520 h1        1 MOL      0.142918
    172 H81         6.4170   -0.1980    0.9250 hn        1 MOL      0.102187
    173 Ca1        -1.3650    0.0420   -1.5010 Ca        1 MOL      1.805641
    174 O23        -0.6700   -2.5740   -2.3210 oh        1 MOL     -0.815074
    175 H82         0.2100   -2.3740   -2.6510 ho        1 MOL      0.393246
    176 H83        -0.7000   -3.5300   -2.2850 ho        1 MOL      0.393246
    177 O24        -1.5310   -0.0110   -4.5600 oh        1 MOL     -0.815074
    178 H84        -0.9720   -0.3680   -5.2510 ho        1 MOL      0.393246
    179 H85        -2.3690    0.1690   -4.9800 ho        1 MOL      0.393246
@<TRIPOS>BOND
     1    1    2 1   
     2    1    4 1   
     3    1    5 1   
     4    1    6 1   
     5    2    3 2   
     6    2    7 1   
     7    7    8 1   
     8    7   15 1   
     9    8    9 1   
    10    8   11 1   
    11    8   16 1   
    12    9   10 2   
    13    9   19 1   
    14   11   12 1   
    15   11   17 1   
    16   11   18 1   
    17   12   13 1   
    18   12   14 1   
    19   19   20 1   
    20   19   28 1   
    21   20   21 1   
    22   20   23 1   
    23   20   29 1   
    24   21   22 2   
    25   21   41 1   
    26   23   24 1   
    27   23   30 1   
    28   23   31 1   
    29   24   25 1   
    30   24   32 1   
    31   24   33 1   
    32   25   26 1   
    33   25   34 1   
    34   25   35 1   
    35   26   27 1   
    36   26   36 1   
    37   26   37 1   
    38   27   38 1   
    39   27   39 1   
    40   27   40 1   
    41   41   42 1   
    42   41   49 1   
    43   42   43 1   
    44   42   45 1   
    45   42   50 1   
    46   43   44 2   
    47   43   53 1   
    48   45   46 1   
    49   45   51 1   
    50   45   52 1   
    51   46   47 1   
    52   46   48 1   
    53   53   54 1   
    54   53   57 1   
    55   54   55 1   
    56   54   58 1   
    57   54   59 1   
    58   55   56 2   
    59   55   60 1   
    60   60   61 1   
    61   60   68 1   
    62   61   62 1   
    63   61   64 1   
    64   61   69 1   
    65   62   63 2   
    66   62   74 1   
    67   64   65 1   
    68   64   70 1   
    69   64   71 1   
    70   65   66 1   
    71   65   67 2   
    72   66   72 1   
    73   66   73 1   
    74   74   75 1   
    75   74   78 1   
    76   75   76 1   
    77   75   79 1   
    78   75   80 1   
    79   76   77 2   
    80   76   81 1   
    81   81   82 1   
    82   81   93 1   
    83   82   83 1   
    84   82   85 1   
    85   82   94 1   
    86   83   84 2   
    87   83  102 1   
    88   85   86 1   
    89   85   95 1   
    90   85   96 1   
    91   86   87 ar  
    92   86   88 ar  
    93   87   89 ar  
    94   87   97 1   
    95   88   90 ar  
    96   88   98 1   
    97   89   91 ar  
    98   89   99 1   
    99   90   91 ar  
   100   90  100 1   
   101   91   92 1   
   102   92  101 1   
   103  102  103 1   
   104  102  110 1   
   105  103  104 1   
   106  103  106 1   
   107  103  111 1   
   108  104  105 2   
   109  104  121 1   
   110  106  107 1   
   111  106  108 1   
   112  106  112 1   
   113  107  109 1   
   114  107  113 1   
   115  107  114 1   
   116  108  115 1   
   117  108  116 1   
   118  108  117 1   
   119  109  118 1   
   120  109  119 1   
   121  109  120 1   
   122  121  122 1   
   123  121  127 1   
   124  122  123 1   
   125  122  125 1   
   126  122  128 1   
   127  123  124 2   
   128  123  132 1   
   129  125  126 1   
   130  125  129 1   
   131  125  130 1   
   132  126  131 1   
   133  132  133 1   
   134  132  137 1   
   135  133  134 1   
   136  133  136 1   
   137  133  138 1   
   138  134  135 2   
   139  134  142 1   
   140  136  139 1   
   141  136  140 1   
   142  136  141 1   
   143  142  143 1   
   144  142  147 1   
   145  143  144 1   
   146  143  146 1   
   147  143  148 1   
   148  144  145 2   
   149  144  152 1   
   150  146  149 1   
   151  146  150 1   
   152  146  151 1   
   153  152  153 1   
   154  152  161 1   
   155  153  154 1   
   156  153  156 1   
   157  153  162 1   
   158  154  155 2   
   159  154  167 1   
   160  156  157 1   
   161  156  163 1   
   162  156  164 1   
   163  157  158 1   
   164  157  165 1   
   165  157  166 1   
   166  158  159 1   
   167  158  160 1   
   168  167  168 1   
   169  167  172 1   
   170  168  169 1   
   171  168  170 1   
   172  168  171 1   
   173  174  175 1   
   174  174  176 1   
   175  177  178 1   
   176  177  179 1   
@<TRIPOS>SUBSTRUCTURE
     1 MOL         1 TEMP              0 ****  ****    0 ROOT
