@<TRIPOS>MOLECULE
MOL
  182   178     1     0     0
SMALL
resp


@<TRIPOS>ATOM
      1 C1          2.3030    1.9860    5.7360 c3        1 MOL     -0.321509
      2 C2          1.6810    1.9450    4.3090 c         1 MOL      0.763464
      3 O1          2.4160    2.1240    3.3180 o         1 MOL     -0.627525
      4 H1          3.1640    2.6550    5.7380 hc        1 MOL      0.080639
      5 H2          1.5600    2.3480    6.4470 hc        1 MOL      0.080639
      6 H3          2.6230    0.9830    6.0230 hc        1 MOL      0.080639
      7 N1          0.3510    1.8980    4.2250 n         1 MOL     -0.633828
      8 C3         -0.3600    1.9300    2.9920 c3        1 MOL      0.226660
      9 C4         -0.3940    3.3850    2.5020 c         1 MOL      0.468580
     10 O2         -0.9960    4.2990    3.1380 o         1 MOL     -0.556238
     11 C5         -1.6870    1.1430    3.1070 c3        1 MOL     -0.218352
     12 C6         -2.6170    1.1850    1.8580 c         1 MOL      0.774181
     13 O3         -2.1260    1.4370    0.7080 o         1 MOL     -0.703309
     14 O4         -3.8240    1.0970    2.1490 o         1 MOL     -0.703309
     15 H4         -0.1360    1.7940    5.1130 hn        1 MOL      0.327961
     16 H5          0.3280    1.4490    2.2980 h1        1 MOL      0.015245
     17 H6         -2.2760    1.6060    3.9060 hc        1 MOL      0.050031
     18 H7         -1.4090    0.1250    3.4020 hc        1 MOL      0.050031
     19 N2          0.2220    3.5230    1.3390 n         1 MOL     -0.090017
     20 C7          0.5390    4.7360    0.7690 c3        1 MOL     -0.364414
     21 C8         -0.5570    5.4340    0.0020 c         1 MOL      0.620433
     22 O5         -0.4670    6.6210   -0.1370 o         1 MOL     -0.578940
     23 C9          1.8310    4.4290    0.0120 c3        1 MOL      0.200852
     24 C10         2.7350    5.6110   -0.4030 c3        1 MOL     -0.044697
     25 C11         4.1930    5.1940   -0.9460 c3        1 MOL     -0.237459
     26 C12         5.1740    6.3020   -0.5820 c3        1 MOL      0.079973
     27 N3          4.8510    7.5080   -1.2890 n4        1 MOL     -0.379117
     28 H8          0.7460    2.7130    1.0300 hn        1 MOL      0.089370
     29 H9          0.6800    5.4090    1.6150 h1        1 MOL      0.140881
     30 H10         1.5600    3.9180   -0.9080 hc        1 MOL      0.078113
     31 H11         2.4890    3.7350    0.5450 hc        1 MOL      0.078113
     32 H12         2.7300    6.2290    0.4930 hc        1 MOL      0.011099
     33 H13         2.1800    6.0220   -1.2460 hc        1 MOL      0.011099
     34 H14         4.2350    4.9570   -2.0090 hc        1 MOL      0.102206
     35 H15         4.5600    4.3640   -0.3480 hc        1 MOL      0.102206
     36 H16         6.1870    5.9600   -0.7820 hx        1 MOL      0.091392
     37 H17         5.1980    6.5200    0.4810 hx        1 MOL      0.091392
     38 H18         3.9190    7.8020   -1.0400 hn        1 MOL      0.328979
     39 H19         5.4420    8.3070   -1.1040 hn        1 MOL      0.328979
     40 H20         4.9960    7.3240   -2.2660 hn        1 MOL      0.328979
     41 N4         -1.4640    4.6460   -0.6290 n         1 MOL     -0.349627
     42 C13        -2.6820    5.2250   -1.3040 c3        1 MOL      0.024945
     43 C14        -4.0200    4.8850   -0.5310 c         1 MOL      0.418182
     44 O6         -5.0610    5.2320   -0.9700 o         1 MOL     -0.491709
     45 C15        -2.7400    4.8800   -2.7840 c3        1 MOL     -0.256389
     46 C16        -2.6700    3.3540   -3.0760 c         1 MOL      0.754214
     47 O7         -3.0500    2.9090   -4.2570 o         1 MOL     -0.721452
     48 O8         -2.1780    2.5610   -2.2460 o         1 MOL     -0.721452
     49 H21        -1.4190    3.6420   -0.5750 hn        1 MOL      0.157957
     50 H22        -2.6090    6.3090   -1.4130 h1        1 MOL      0.113758
     51 H23        -1.9470    5.3960   -3.3330 hc        1 MOL      0.085174
     52 H24        -3.6990    5.1200   -3.2480 hc        1 MOL      0.085174
     53 N5         -3.9930    4.2020    0.6550 n         1 MOL     -0.261061
     54 C17        -5.2330    3.9250    1.4200 c3        1 MOL     -0.265545
     55 C18        -6.1900    2.8870    0.8090 c         1 MOL      0.528410
     56 O9         -7.3600    2.9030    1.1840 o         1 MOL     -0.560439
     57 H25        -3.1100    3.7760    0.8850 hn        1 MOL      0.200278
     58 H26        -5.8400    4.8330    1.5470 h1        1 MOL      0.146886
     59 H27        -4.9710    3.5200    2.3900 h1        1 MOL      0.146886
     60 N6         -5.7140    2.1340   -0.1880 n         1 MOL     -0.173968
     61 C19        -6.3630    1.1650   -0.9650 c3        1 MOL     -0.384524
     62 C20        -6.6690   -0.1380   -0.2560 c         1 MOL      0.558351
     63 O10        -7.3970   -0.9680   -0.7990 o         1 MOL     -0.554397
     64 C21        -5.6460    0.9820   -2.3030 c3        1 MOL      0.007523
     65 C22        -4.5680   -0.0780   -2.3580 c         1 MOL      0.458108
     66 N7         -4.7280   -1.0150   -3.2500 n         1 MOL     -0.747883
     67 O11        -3.7050   -0.2000   -1.4100 o         1 MOL     -0.535301
     68 H28        -4.7270    2.2020   -0.3930 hn        1 MOL      0.330028
     69 H29        -7.3250    1.6380   -1.1540 h1        1 MOL      0.182085
     70 H30        -5.1280    1.9040   -2.6060 hc        1 MOL      0.059661
     71 H31        -6.3570    0.7100   -3.0830 hc        1 MOL      0.059661
     72 H32        -5.6630   -1.1270   -3.6120 hn        1 MOL      0.380164
     73 H33        -4.0210   -1.7290   -3.2080 hn        1 MOL      0.380164
     74 N8         -6.1680   -0.2770    0.9700 n         1 MOL     -0.195908
     75 C23        -6.3420   -1.4370    1.8670 c3        1 MOL     -0.404179
     76 C24        -5.2530   -2.5380    1.6980 c         1 MOL      0.575663
     77 O12        -5.4680   -3.6750    2.1670 o         1 MOL     -0.520577
     78 H34        -5.4920    0.3870    1.3080 hn        1 MOL      0.263836
     79 H35        -7.3500   -1.7910    1.6480 h1        1 MOL      0.175463
     80 H36        -6.2420   -0.9690    2.8480 h1        1 MOL      0.175463
     81 N9         -4.1470   -2.2220    1.0330 n         1 MOL     -0.351100
     82 C25        -2.9840   -3.1310    0.8530 c3        1 MOL     -0.042655
     83 C26        -1.5930   -2.5270    0.7970 c         1 MOL      0.679202
     84 O13        -1.4020   -1.4680    0.2470 o         1 MOL     -0.785958
     85 C27        -3.1650   -4.0310   -0.3800 c3        1 MOL      0.247577
     86 C28        -4.4910   -4.8060   -0.5480 ca        1 MOL     -0.384771
     87 C29        -4.4540   -6.0990    0.0170 ca        1 MOL      0.123952
     88 C30        -5.6540   -4.2410   -0.9720 ca        1 MOL      0.123952
     89 C31        -5.5830   -6.9020   -0.0650 ca        1 MOL     -0.464971
     90 C32        -6.8170   -4.9980   -1.0370 ca        1 MOL     -0.464971
     91 C33        -6.7810   -6.3140   -0.5180 ca        1 MOL      0.578942
     92 O14        -7.8960   -7.0430   -0.6180 oh        1 MOL     -0.545704
     93 H37        -4.0680   -1.2560    0.7440 hn        1 MOL      0.271937
     94 H38        -3.0420   -3.7820    1.7200 h1        1 MOL      0.049713
     95 H39        -2.2990   -4.7000   -0.3920 hc        1 MOL     -0.036970
     96 H40        -3.0530   -3.3890   -1.2430 hc        1 MOL     -0.036970
     97 H41        -3.5310   -6.4960    0.4090 ha        1 MOL      0.079695
     98 H42        -5.6400   -3.1970   -1.2310 ha        1 MOL      0.079695
     99 H43        -5.5200   -7.8980    0.3550 ha        1 MOL      0.187237
    100 H44        -7.7580   -4.5140   -1.2600 ha        1 MOL      0.187237
    101 H45        -8.5630   -6.5340   -1.0840 ho        1 MOL      0.375208
    102 N10        -0.6000   -3.2640    1.3170 n         1 MOL     -0.481463
    103 C34         0.7890   -2.8540    1.5220 c3        1 MOL      0.049450
    104 C35         1.5920   -3.7450    0.5300 c         1 MOL      0.306071
    105 O15         1.7580   -4.9760    0.7390 o         1 MOL     -0.524817
    106 C36         1.3040   -3.1200    2.9710 c3        1 MOL      0.356835
    107 C37         0.4020   -2.4610    4.0210 c3        1 MOL      0.282737
    108 C38         2.6880   -2.5780    3.0740 c3        1 MOL     -0.210627
    109 C39         0.7830   -2.8790    5.4530 c3        1 MOL     -0.492619
    110 H46        -0.8220   -4.1600    1.7250 hn        1 MOL      0.282859
    111 H47         0.9170   -1.7940    1.3350 h1        1 MOL      0.125219
    112 H48         1.2770   -4.1810    3.2020 hc        1 MOL     -0.071784
    113 H49        -0.5440   -2.9850    3.8450 hc        1 MOL     -0.089682
    114 H50         0.3040   -1.4020    3.8000 hc        1 MOL     -0.089682
    115 H51         2.5730   -1.5010    3.2290 hc        1 MOL      0.009358
    116 H52         3.2300   -3.0160    3.9150 hc        1 MOL      0.009358
    117 H53         3.2830   -2.7590    2.1760 hc        1 MOL      0.009358
    118 H54         1.8270   -2.6070    5.6260 hc        1 MOL      0.122087
    119 H55         0.0540   -2.3800    6.0870 hc        1 MOL      0.122087
    120 H56         0.8220   -3.9700    5.3770 hc        1 MOL      0.122087
    121 N11         2.2040   -3.1610   -0.5280 n         1 MOL     -0.164208
    122 C40         3.2340   -3.7310   -1.4030 c3        1 MOL     -0.118902
    123 C41         4.6840   -3.5240   -0.9200 c         1 MOL      0.651974
    124 O16         4.9690   -2.7020   -0.0430 o         1 MOL     -0.441300
    125 C42         3.0570   -3.1570   -2.7940 c3        1 MOL      0.001790
    126 O17         3.3330   -1.7400   -2.9170 oh        1 MOL     -0.544871
    127 H57         1.8790   -2.2450   -0.8010 hn        1 MOL      0.380936
    128 H58         3.0980   -4.8010   -1.5670 h1        1 MOL      0.067574
    129 H59         2.0600   -3.3410   -3.1830 h1        1 MOL      0.058453
    130 H60         3.7840   -3.6420   -3.4450 h1        1 MOL      0.058453
    131 H61         2.5780   -1.3010   -2.5170 ho        1 MOL      0.348789
    132 N12         5.6360   -4.3450   -1.3370 n         1 MOL     -0.559105
    133 C43         7.0530   -4.3130   -0.8970 c3        1 MOL      0.205547
    134 C44         7.7150   -2.9280   -0.9380 c         1 MOL      0.465463
    135 O18         8.3160   -2.5890    0.0570 o         1 MOL     -0.541300
    136 C45         7.8330   -5.2910   -1.8230 c3        1 MOL     -0.360830
    137 H62         5.4310   -5.1300   -1.9370 hn        1 MOL      0.316333
    138 H63         7.1240   -4.6780    0.1280 h1        1 MOL      0.073911
    139 H64         7.6300   -5.0490   -2.8550 hc        1 MOL      0.103787
    140 H65         8.8910   -5.2960   -1.5510 hc        1 MOL      0.103787
    141 H66         7.4110   -6.2910   -1.7770 hc        1 MOL      0.103787
    142 N13         7.5080   -2.1000   -1.9250 n         1 MOL     -0.368776
    143 C46         7.9970   -0.7360   -2.0700 c3        1 MOL      0.116049
    144 C47         7.2220    0.2880   -1.2170 c         1 MOL      0.369841
    145 O19         7.7790    1.3480   -0.9630 o         1 MOL     -0.534482
    146 C48         7.9470   -0.4070   -3.5620 c3        1 MOL     -0.354074
    147 H67         7.0650   -2.5590   -2.7030 hn        1 MOL      0.258647
    148 H68         9.0670   -0.6890   -1.8620 h1        1 MOL      0.109672
    149 H69         8.7040   -0.9620   -4.1110 hc        1 MOL      0.101356
    150 H70         6.9590   -0.5320   -3.9970 hc        1 MOL      0.101356
    151 H71         8.1800    0.6490   -3.6380 hc        1 MOL      0.101356
    152 N14         6.0710   -0.0990   -0.6530 n         1 MOL     -0.110573
    153 C49         5.4540    0.6920    0.4200 c3        1 MOL      0.007364
    154 C50         5.9510    0.3720    1.7670 c         1 MOL      0.488647
    155 O20         6.1490    1.3380    2.4880 o         1 MOL     -0.549611
    156 C51         3.9380    0.3430    0.2850 c3        1 MOL      0.011648
    157 C52         3.2630    0.9500   -0.9670 c3        1 MOL     -0.114206
    158 C53         1.8150    0.5800   -0.8680 c         1 MOL      0.811426
    159 O21         1.4390   -0.5720   -1.1130 o         1 MOL     -0.749235
    160 O22         1.0080    1.4790   -0.5670 o         1 MOL     -0.749235
    161 H72         5.7210   -1.0270   -0.8220 hn        1 MOL      0.084216
    162 H73         5.5670    1.7820    0.3060 h1        1 MOL      0.072423
    163 H74         3.3710    0.8020    1.0910 hc        1 MOL     -0.007044
    164 H75         3.6900   -0.7220    0.3280 hc        1 MOL     -0.007044
    165 H76         3.6950    0.6570   -1.9270 hc        1 MOL     -0.016177
    166 H77         3.3480    2.0160   -0.8110 hc        1 MOL     -0.016177
    167 N15         6.1680   -0.9040    2.1170 n         1 MOL     -0.129132
    168 C54         6.9100   -1.2690    3.3010 c3        1 MOL     -0.302645
    169 H78         7.7320   -0.5690    3.4440 h1        1 MOL      0.115214
    170 H79         6.2500   -1.2360    4.1680 h1        1 MOL      0.115214
    171 H80         7.3080   -2.2770    3.1840 h1        1 MOL      0.115214
    172 H81         6.0040   -1.6200    1.4290 hn        1 MOL      0.188923
    173 Ca1        -1.1210    0.3940   -1.5290 Ca        1 MOL      1.725188
    174 O23        -0.7080   -2.0570   -2.5480 oh        1 MOL     -0.793816
    175 H82        -0.7300   -3.0100   -2.4740 ho        1 MOL      0.385314
    176 H83        -0.7250   -1.8780   -3.4930 ho        1 MOL      0.385314
    177 O24        -2.2970    0.0620   -4.0390 oh        1 MOL     -0.793816
    178 H84        -2.5940   -0.4950   -4.7570 ho        1 MOL      0.385314
    179 H85        -2.6040    0.9350   -4.2680 ho        1 MOL      0.385314
    180 O25         0.7770    0.8810   -3.6800 oh        1 MOL     -0.793816
    181 H86         0.8710    0.0680   -4.1740 ho        1 MOL      0.385314
    182 H87         0.4830    1.5280   -4.3180 ho        1 MOL      0.385314
@<TRIPOS>BOND
     1    1    2 1   
     2    1    4 1   
     3    1    5 1   
     4    1    6 1   
     5    2    3 2   
     6    2    7 1   
     7    7    8 1   
     8    7   15 1   
     9    8    9 1   
    10    8   11 1   
    11    8   16 1   
    12    9   10 2   
    13    9   19 1   
    14   11   12 1   
    15   11   17 1   
    16   11   18 1   
    17   12   13 1   
    18   12   14 1   
    19   19   20 1   
    20   19   28 1   
    21   20   21 1   
    22   20   23 1   
    23   20   29 1   
    24   21   22 2   
    25   21   41 1   
    26   23   24 1   
    27   23   30 1   
    28   23   31 1   
    29   24   25 1   
    30   24   32 1   
    31   24   33 1   
    32   25   26 1   
    33   25   34 1   
    34   25   35 1   
    35   26   27 1   
    36   26   36 1   
    37   26   37 1   
    38   27   38 1   
    39   27   39 1   
    40   27   40 1   
    41   41   42 1   
    42   41   49 1   
    43   42   43 1   
    44   42   45 1   
    45   42   50 1   
    46   43   44 2   
    47   43   53 1   
    48   45   46 1   
    49   45   51 1   
    50   45   52 1   
    51   46   47 1   
    52   46   48 1   
    53   53   54 1   
    54   53   57 1   
    55   54   55 1   
    56   54   58 1   
    57   54   59 1   
    58   55   56 2   
    59   55   60 1   
    60   60   61 1   
    61   60   68 1   
    62   61   62 1   
    63   61   64 1   
    64   61   69 1   
    65   62   63 2   
    66   62   74 1   
    67   64   65 1   
    68   64   70 1   
    69   64   71 1   
    70   65   66 1   
    71   65   67 2   
    72   66   72 1   
    73   66   73 1   
    74   74   75 1   
    75   74   78 1   
    76   75   76 1   
    77   75   79 1   
    78   75   80 1   
    79   76   77 2   
    80   76   81 1   
    81   81   82 1   
    82   81   93 1   
    83   82   83 1   
    84   82   85 1   
    85   82   94 1   
    86   83   84 2   
    87   83  102 1   
    88   85   86 1   
    89   85   95 1   
    90   85   96 1   
    91   86   87 ar  
    92   86   88 ar  
    93   87   89 ar  
    94   87   97 1   
    95   88   90 ar  
    96   88   98 1   
    97   89   91 ar  
    98   89   99 1   
    99   90   91 ar  
   100   90  100 1   
   101   91   92 1   
   102   92  101 1   
   103  102  103 1   
   104  102  110 1   
   105  103  104 1   
   106  103  106 1   
   107  103  111 1   
   108  104  105 2   
   109  104  121 1   
   110  106  107 1   
   111  106  108 1   
   112  106  112 1   
   113  107  109 1   
   114  107  113 1   
   115  107  114 1   
   116  108  115 1   
   117  108  116 1   
   118  108  117 1   
   119  109  118 1   
   120  109  119 1   
   121  109  120 1   
   122  121  122 1   
   123  121  127 1   
   124  122  123 1   
   125  122  125 1   
   126  122  128 1   
   127  123  124 2   
   128  123  132 1   
   129  125  126 1   
   130  125  129 1   
   131  125  130 1   
   132  126  131 1   
   133  132  133 1   
   134  132  137 1   
   135  133  134 1   
   136  133  136 1   
   137  133  138 1   
   138  134  135 2   
   139  134  142 1   
   140  136  139 1   
   141  136  140 1   
   142  136  141 1   
   143  142  143 1   
   144  142  147 1   
   145  143  144 1   
   146  143  146 1   
   147  143  148 1   
   148  144  145 2   
   149  144  152 1   
   150  146  149 1   
   151  146  150 1   
   152  146  151 1   
   153  152  153 1   
   154  152  161 1   
   155  153  154 1   
   156  153  156 1   
   157  153  162 1   
   158  154  155 2   
   159  154  167 1   
   160  156  157 1   
   161  156  163 1   
   162  156  164 1   
   163  157  158 1   
   164  157  165 1   
   165  157  166 1   
   166  158  159 1   
   167  158  160 1   
   168  167  168 1   
   169  167  172 1   
   170  168  169 1   
   171  168  170 1   
   172  168  171 1   
   173  174  175 1   
   174  174  176 1   
   175  177  178 1   
   176  177  179 1   
   177  180  181 1   
   178  180  182 1   
@<TRIPOS>SUBSTRUCTURE
     1 MOL         1 TEMP              0 ****  ****    0 ROOT
