@<TRIPOS>MOLECULE
MOL
  179   176     1     0     0
SMALL
resp


@<TRIPOS>ATOM
      1 C1          1.0680    3.2420    6.8670 c3        1 MOL     -0.334808
      2 C2          1.2190    2.8630    5.4230 c         1 MOL      0.819900
      3 O1          2.2880    2.5020    5.0180 o         1 MOL     -0.569389
      4 H1          0.5550    2.4420    7.4010 hc        1 MOL      0.080528
      5 H2          2.0530    3.3990    7.3080 hc        1 MOL      0.080528
      6 H3          0.4860    4.1610    6.9430 hc        1 MOL      0.080528
      7 N1          0.1520    3.0690    4.5450 n         1 MOL     -0.722553
      8 C3          0.2080    2.7640    3.1170 c3        1 MOL      0.046027
      9 C4          0.5990    3.9670    2.2920 c         1 MOL      0.689374
     10 O2          0.3150    5.1280    2.5000 o         1 MOL     -0.577108
     11 C5         -1.1830    2.1970    2.7310 c3        1 MOL      0.015674
     12 C6         -1.2270    1.6180    1.2960 c         1 MOL      0.774905
     13 O3         -2.3140    1.3890    0.7140 o         1 MOL     -0.767529
     14 O4         -0.1230    1.3910    0.7300 o         1 MOL     -0.767529
     15 H4         -0.7820    3.1890    4.9230 hn        1 MOL      0.331129
     16 H5          1.0160    2.0490    2.9680 h1        1 MOL      0.066923
     17 H6         -1.8940    3.0200    2.8380 hc        1 MOL     -0.015893
     18 H7         -1.4960    1.3420    3.3320 hc        1 MOL     -0.015893
     19 N2          1.2370    3.7020    1.1580 n         1 MOL     -0.423468
     20 C7          1.7690    4.5960    0.0970 c3        1 MOL     -0.020552
     21 C8          0.7180    5.3540   -0.7130 c         1 MOL      0.478837
     22 O5          0.9430    6.4860   -1.0930 o         1 MOL     -0.578226
     23 C9          2.6830    3.8380   -0.8280 c3        1 MOL      0.090779
     24 C10         3.7230    4.6840   -1.4890 c3        1 MOL      0.022881
     25 C11         4.9760    4.8520   -0.5890 c3        1 MOL     -0.046914
     26 C12         6.0120    5.8590   -1.0270 c3        1 MOL      0.085020
     27 N3          5.5280    7.2410   -0.9580 n4        1 MOL     -0.479253
     28 H8          1.4580    2.7310    1.0000 hn        1 MOL      0.215450
     29 H9          2.3860    5.3350    0.5990 h1        1 MOL      0.036336
     30 H10         2.0670    3.4360   -1.6230 hc        1 MOL      0.023911
     31 H11         3.2960    3.0600   -0.3740 hc        1 MOL      0.023911
     32 H12         3.3460    5.6740   -1.7230 hc        1 MOL     -0.000754
     33 H13         4.0290    4.2510   -2.4520 hc        1 MOL     -0.000754
     34 H14         5.4790    3.8790   -0.6010 hc        1 MOL      0.043583
     35 H15         4.7060    5.0980    0.4410 hc        1 MOL      0.043583
     36 H16         6.3210    5.5860   -2.0250 hx        1 MOL      0.077976
     37 H17         6.9240    5.7450   -0.4430 hx        1 MOL      0.077976
     38 H18         5.2270    7.4240   -0.0090 hn        1 MOL      0.357072
     39 H19         6.2960    7.8730   -1.1360 hn        1 MOL      0.357072
     40 H20         4.7570    7.4930   -1.5490 hn        1 MOL      0.357072
     41 N4         -0.4510    4.7590   -0.9510 n         1 MOL     -0.197199
     42 C13        -1.5260    5.3610   -1.7620 c3        1 MOL      0.087617
     43 C14        -2.8930    5.2080   -1.0750 c         1 MOL      0.330184
     44 O6         -3.8530    5.6620   -1.6800 o         1 MOL     -0.478160
     45 C15        -1.5550    4.7430   -3.1470 c3        1 MOL     -0.310787
     46 C16        -1.9770    3.2560   -3.2220 c         1 MOL      0.831348
     47 O7         -1.9820    2.5410   -2.1560 o         1 MOL     -0.701158
     48 O8         -2.1320    2.6700   -4.2790 o         1 MOL     -0.701158
     49 H21        -0.5280    3.7790   -0.7300 hn        1 MOL      0.128198
     50 H22        -1.2790    6.4240   -1.8040 h1        1 MOL      0.107351
     51 H23        -0.5950    4.9250   -3.6310 hc        1 MOL      0.083332
     52 H24        -2.3160    5.2950   -3.7120 hc        1 MOL      0.083332
     53 N5         -2.9290    4.6380    0.1820 n         1 MOL     -0.157245
     54 C17        -4.0610    4.3990    1.0920 c3        1 MOL     -0.020102
     55 C18        -5.2340    3.6020    0.4150 c         1 MOL      0.470561
     56 O9         -6.4050    3.7260    0.7580 o         1 MOL     -0.583109
     57 H25        -2.0130    4.5010    0.5860 hn        1 MOL      0.109965
     58 H26        -4.3780    5.3600    1.5180 h1        1 MOL      0.064070
     59 H27        -3.6780    3.7160    1.8410 h1        1 MOL      0.064070
     60 N6         -4.9390    2.6630   -0.4940 n         1 MOL     -0.087768
     61 C19        -5.9900    1.9440   -1.2190 c3        1 MOL     -0.123180
     62 C20        -6.5250    0.6830   -0.4560 c         1 MOL      0.323410
     63 O10        -7.0680   -0.2240   -1.0670 o         1 MOL     -0.412815
     64 C21        -5.5130    1.5360   -2.6470 c3        1 MOL     -0.177554
     65 C22        -4.7030    0.2490   -2.7620 c         1 MOL      0.619615
     66 N7         -4.8800   -0.4360   -3.8240 n         1 MOL     -0.776618
     67 O11        -4.0300   -0.0980   -1.8320 o         1 MOL     -0.469536
     68 H28        -4.0100    2.3560   -0.7270 hn        1 MOL      0.038995
     69 H29        -6.7910    2.6550   -1.4440 h1        1 MOL      0.166199
     70 H30        -4.9150    2.3930   -2.9850 hc        1 MOL      0.079419
     71 H31        -6.3800    1.5720   -3.3040 hc        1 MOL      0.079419
     72 H32        -5.5120   -0.0770   -4.5250 hn        1 MOL      0.372011
     73 H33        -4.5700   -1.4020   -3.8980 hn        1 MOL      0.372011
     74 N8         -6.2420    0.6300    0.8830 n         1 MOL     -0.163346
     75 C23        -6.6170   -0.4710    1.7360 c3        1 MOL     -0.409847
     76 C24        -5.7090   -1.7780    1.6740 c         1 MOL      0.596028
     77 O12        -6.0690   -2.7600    2.3540 o         1 MOL     -0.535308
     78 H34        -5.8850    1.4820    1.3070 hn        1 MOL      0.277971
     79 H35        -7.6630   -0.7400    1.6110 h1        1 MOL      0.167685
     80 H36        -6.4750   -0.1020    2.7510 h1        1 MOL      0.167685
     81 N9         -4.5840   -1.7460    0.9950 n         1 MOL     -0.306231
     82 C25        -3.7480   -2.8730    0.9330 c3        1 MOL      0.002207
     83 C26        -2.2210   -2.4340    1.0370 c         1 MOL      0.563721
     84 O13        -1.8860   -1.5740    0.2590 o         1 MOL     -0.570063
     85 C27        -4.0470   -3.7100   -0.3520 c3        1 MOL      0.154012
     86 C28        -5.3130   -4.4640   -0.2570 ca        1 MOL     -0.203022
     87 C29        -6.5040   -3.8510   -0.7310 ca        1 MOL      0.007243
     88 C30        -5.3000   -5.7210    0.4010 ca        1 MOL      0.007243
     89 C31        -7.6700   -4.5260   -0.4220 ca        1 MOL     -0.395926
     90 C32        -6.5140   -6.4480    0.5810 ca        1 MOL     -0.395926
     91 C33        -7.6730   -5.7660    0.1650 ca        1 MOL      0.497648
     92 O14        -8.9260   -6.3190    0.3780 oh        1 MOL     -0.534854
     93 H37        -4.2890   -0.8990    0.5390 hn        1 MOL      0.213015
     94 H38        -3.9350   -3.5250    1.7810 h1        1 MOL      0.033318
     95 H39        -3.2840   -4.4800   -0.4910 hc        1 MOL     -0.019570
     96 H40        -4.0990   -3.0840   -1.2430 hc        1 MOL     -0.019570
     97 H41        -6.4890   -2.8790   -1.2160 ha        1 MOL      0.104554
     98 H42        -4.3540   -6.1720    0.7030 ha        1 MOL      0.104554
     99 H43        -8.5750   -3.9300   -0.5380 ha        1 MOL      0.172391
    100 H44        -6.4420   -7.4410    1.0170 ha        1 MOL      0.172391
    101 H45        -8.8880   -7.1950    0.7630 ho        1 MOL      0.362088
    102 N10        -1.3550   -3.1100    1.8420 n         1 MOL     -0.487505
    103 C34         0.0520   -2.8600    1.7800 c3        1 MOL      0.005833
    104 C35         0.7810   -3.9090    0.9530 c         1 MOL      0.589184
    105 O15         0.4120   -5.0780    1.0460 o         1 MOL     -0.585634
    106 C36         0.7460   -2.7400    3.1750 c3        1 MOL     -0.025586
    107 C37         0.0610   -1.5470    3.9550 c3        1 MOL      0.166750
    108 C38         2.2290   -2.5110    3.1420 c3        1 MOL     -0.207506
    109 C39         0.3870   -1.4050    5.4970 c3        1 MOL     -0.255412
    110 H46        -1.7360   -3.8850    2.3640 hn        1 MOL      0.318486
    111 H47         0.2570   -1.8890    1.3250 h1        1 MOL      0.027831
    112 H48         0.4910   -3.6340    3.7590 hc        1 MOL      0.032544
    113 H49        -1.0250   -1.5480    3.8640 hc        1 MOL      0.000205
    114 H50         0.4940   -0.6340    3.5630 hc        1 MOL      0.000205
    115 H51         2.8120   -3.2740    2.6290 hc        1 MOL      0.051988
    116 H52         2.4000   -1.5590    2.6360 hc        1 MOL      0.051988
    117 H53         2.6170   -2.4670    4.1610 hc        1 MOL      0.051988
    118 H54         1.4090   -1.0850    5.7220 hc        1 MOL      0.058771
    119 H55        -0.1120   -0.4530    5.6790 hc        1 MOL      0.058771
    120 H56        -0.0290   -2.2150    6.0980 hc        1 MOL      0.058771
    121 N11         1.7560   -3.4990    0.1690 n         1 MOL     -0.010921
    122 C40         2.4880   -4.4080   -0.6710 c3        1 MOL     -0.498231
    123 C41         4.0380   -4.1480   -0.5810 c         1 MOL      0.695200
    124 O16         4.4740   -3.1410   -0.0580 o         1 MOL     -0.509264
    125 C42         2.0180   -4.5420   -2.0890 c3        1 MOL      0.202466
    126 O17         2.1930   -3.3710   -2.7730 oh        1 MOL     -0.602802
    127 H57         1.9110   -2.4950    0.0890 hn        1 MOL      0.152991
    128 H58         2.3400   -5.4300   -0.3050 h1        1 MOL      0.124517
    129 H59         0.9460   -4.7740   -2.1240 h1        1 MOL      0.050860
    130 H60         2.4560   -5.3830   -2.6420 h1        1 MOL      0.050860
    131 H61         1.9260   -2.6350   -2.2300 ho        1 MOL      0.405125
    132 N12         4.8440   -5.1300   -0.9310 n         1 MOL     -0.538216
    133 C43         6.2900   -5.3270   -0.6520 c3        1 MOL      0.201518
    134 C44         7.2270   -4.1200   -0.6260 c         1 MOL      0.398887
    135 O18         8.1620   -4.0170    0.1660 o         1 MOL     -0.490600
    136 C45         6.8980   -6.2620   -1.7440 c3        1 MOL     -0.349385
    137 H62         4.2820   -5.9420   -1.1280 hn        1 MOL      0.325602
    138 H63         6.4670   -5.7700    0.3300 h1        1 MOL      0.061882
    139 H64         6.4960   -7.2710   -1.7050 hc        1 MOL      0.106166
    140 H65         6.6760   -5.9050   -2.7570 hc        1 MOL      0.106166
    141 H66         7.9840   -6.2870   -1.7150 hc        1 MOL      0.106166
    142 N13         7.2210   -3.2400   -1.6810 n         1 MOL     -0.326233
    143 C46         7.9200   -1.9820   -1.7890 c3        1 MOL      0.186148
    144 C47         7.2710   -0.8390   -1.0080 c         1 MOL      0.275213
    145 O19         7.9820    0.0700   -0.4770 o         1 MOL     -0.513562
    146 C48         8.1050   -1.7170   -3.3280 c3        1 MOL     -0.164232
    147 H67         6.4360   -3.2750   -2.3090 hn        1 MOL      0.218100
    148 H68         8.9060   -2.1600   -1.3520 h1        1 MOL      0.080128
    149 H69         7.1320   -1.4290   -3.7250 hc        1 MOL      0.045962
    150 H70         8.9200   -1.0030   -3.4440 hc        1 MOL      0.045962
    151 H71         8.4050   -2.6840   -3.7380 hc        1 MOL      0.045962
    152 N14         5.9480   -0.7640   -0.8630 n         1 MOL     -0.084777
    153 C49         5.2180    0.2310   -0.0950 c3        1 MOL     -0.400006
    154 C50         5.4630    0.1930    1.3940 c         1 MOL      0.523862
    155 O20         5.5340    1.2660    1.9960 o         1 MOL     -0.563675
    156 C51         3.6760   -0.0740   -0.3750 c3        1 MOL     -0.142489
    157 C52         3.2640   -0.0190   -1.8070 c3        1 MOL     -0.172805
    158 C53         1.7570   -0.0030   -1.8170 c         1 MOL      0.715588
    159 O21         1.1850   -1.0520   -1.4830 o         1 MOL     -0.655645
    160 O22         1.1280    0.9260   -2.3410 o         1 MOL     -0.655645
    161 H72         5.4910   -1.5700   -1.2780 hn        1 MOL      0.225847
    162 H73         5.4160    1.2570   -0.4040 h1        1 MOL      0.236836
    163 H74         3.2470    0.8230    0.0850 hc        1 MOL      0.084472
    164 H75         3.2830   -0.9500    0.1280 hc        1 MOL      0.084472
    165 H76         3.6570   -0.8910   -2.3310 hc        1 MOL      0.033160
    166 H77         3.6110    0.9130   -2.2560 hc        1 MOL      0.033160
    167 N15         5.6590   -0.9640    2.0230 n         1 MOL     -0.059865
    168 C54         6.1160   -1.2190    3.3810 c3        1 MOL     -0.273031
    169 H78         5.6250   -2.1110    3.7680 h1        1 MOL      0.111989
    170 H79         7.1960   -1.3720    3.3780 h1        1 MOL      0.111989
    171 H80         5.8720   -0.3650    4.0140 h1        1 MOL      0.111989
    172 H81         5.5610   -1.7610    1.4090 hn        1 MOL      0.159062
    173 Ca1        -1.2410    0.2600   -1.4780 Ca        1 MOL      1.661639
    174 O23        -1.2210   -2.2320   -2.6790 oh        1 MOL     -0.845223
    175 H82        -0.7160   -3.0400   -2.7570 ho        1 MOL      0.397262
    176 H83        -1.9340   -2.3260   -3.3050 ho        1 MOL      0.397262
    177 O24        -1.3760    0.1930   -4.2920 oh        1 MOL     -0.845223
    178 H84        -1.9430   -0.3060   -4.8840 ho        1 MOL      0.397262
    179 H85        -1.5480    1.1020   -4.5060 ho        1 MOL      0.397262
@<TRIPOS>BOND
     1    1    2 1   
     2    1    4 1   
     3    1    5 1   
     4    1    6 1   
     5    2    3 2   
     6    2    7 1   
     7    7    8 1   
     8    7   15 1   
     9    8    9 1   
    10    8   11 1   
    11    8   16 1   
    12    9   10 2   
    13    9   19 1   
    14   11   12 1   
    15   11   17 1   
    16   11   18 1   
    17   12   13 1   
    18   12   14 1   
    19   19   20 1   
    20   19   28 1   
    21   20   21 1   
    22   20   23 1   
    23   20   29 1   
    24   21   22 2   
    25   21   41 1   
    26   23   24 1   
    27   23   30 1   
    28   23   31 1   
    29   24   25 1   
    30   24   32 1   
    31   24   33 1   
    32   25   26 1   
    33   25   34 1   
    34   25   35 1   
    35   26   27 1   
    36   26   36 1   
    37   26   37 1   
    38   27   38 1   
    39   27   39 1   
    40   27   40 1   
    41   41   42 1   
    42   41   49 1   
    43   42   43 1   
    44   42   45 1   
    45   42   50 1   
    46   43   44 2   
    47   43   53 1   
    48   45   46 1   
    49   45   51 1   
    50   45   52 1   
    51   46   47 1   
    52   46   48 1   
    53   53   54 1   
    54   53   57 1   
    55   54   55 1   
    56   54   58 1   
    57   54   59 1   
    58   55   56 2   
    59   55   60 1   
    60   60   61 1   
    61   60   68 1   
    62   61   62 1   
    63   61   64 1   
    64   61   69 1   
    65   62   63 2   
    66   62   74 1   
    67   64   65 1   
    68   64   70 1   
    69   64   71 1   
    70   65   66 1   
    71   65   67 2   
    72   66   72 1   
    73   66   73 1   
    74   74   75 1   
    75   74   78 1   
    76   75   76 1   
    77   75   79 1   
    78   75   80 1   
    79   76   77 2   
    80   76   81 1   
    81   81   82 1   
    82   81   93 1   
    83   82   83 1   
    84   82   85 1   
    85   82   94 1   
    86   83   84 2   
    87   83  102 1   
    88   85   86 1   
    89   85   95 1   
    90   85   96 1   
    91   86   87 ar  
    92   86   88 ar  
    93   87   89 ar  
    94   87   97 1   
    95   88   90 ar  
    96   88   98 1   
    97   89   91 ar  
    98   89   99 1   
    99   90   91 ar  
   100   90  100 1   
   101   91   92 1   
   102   92  101 1   
   103  102  103 1   
   104  102  110 1   
   105  103  104 1   
   106  103  106 1   
   107  103  111 1   
   108  104  105 2   
   109  104  121 1   
   110  106  107 1   
   111  106  108 1   
   112  106  112 1   
   113  107  109 1   
   114  107  113 1   
   115  107  114 1   
   116  108  115 1   
   117  108  116 1   
   118  108  117 1   
   119  109  118 1   
   120  109  119 1   
   121  109  120 1   
   122  121  122 1   
   123  121  127 1   
   124  122  123 1   
   125  122  125 1   
   126  122  128 1   
   127  123  124 2   
   128  123  132 1   
   129  125  126 1   
   130  125  129 1   
   131  125  130 1   
   132  126  131 1   
   133  132  133 1   
   134  132  137 1   
   135  133  134 1   
   136  133  136 1   
   137  133  138 1   
   138  134  135 2   
   139  134  142 1   
   140  136  139 1   
   141  136  140 1   
   142  136  141 1   
   143  142  143 1   
   144  142  147 1   
   145  143  144 1   
   146  143  146 1   
   147  143  148 1   
   148  144  145 2   
   149  144  152 1   
   150  146  149 1   
   151  146  150 1   
   152  146  151 1   
   153  152  153 1   
   154  152  161 1   
   155  153  154 1   
   156  153  156 1   
   157  153  162 1   
   158  154  155 2   
   159  154  167 1   
   160  156  157 1   
   161  156  163 1   
   162  156  164 1   
   163  157  158 1   
   164  157  165 1   
   165  157  166 1   
   166  158  159 1   
   167  158  160 1   
   168  167  168 1   
   169  167  172 1   
   170  168  169 1   
   171  168  170 1   
   172  168  171 1   
   173  174  175 1   
   174  174  176 1   
   175  177  178 1   
   176  177  179 1   
@<TRIPOS>SUBSTRUCTURE
     1 MOL         1 TEMP              0 ****  ****    0 ROOT
