@<TRIPOS>MOLECULE
MOL
  186   183     1     0     0
SMALL
resp


@<TRIPOS>ATOM
      1 C1          0.9930   -2.4610    7.0770 c3        1 MOL     -0.314715
      2 C2          0.8890   -2.4950    5.5250 c         1 MOL      0.725571
      3 O1         -0.1570   -2.9600    5.0280 o         1 MOL     -0.593148
      4 H1          1.9890   -2.7870    7.3810 hc        1 MOL      0.076985
      5 H2          0.8200   -1.4450    7.4310 hc        1 MOL      0.076985
      6 H3          0.2460   -3.1280    7.5070 hc        1 MOL      0.076985
      7 N1          1.9260   -2.0630    4.8400 n         1 MOL     -0.610939
      8 C3          2.1240   -2.1080    3.3890 c3        1 MOL     -0.009537
      9 C4          2.3500   -3.5160    2.7580 c         1 MOL      0.679823
     10 O2          3.2360   -4.2510    3.2120 o         1 MOL     -0.565043
     11 C5          3.3580   -1.2910    3.0150 c3        1 MOL     -0.284227
     12 C6          3.5150   -0.7990    1.5940 c         1 MOL      0.728471
     13 O3          3.4750    0.4640    1.4090 o         1 MOL     -0.694770
     14 O4          3.5290   -1.6070    0.6730 o         1 MOL     -0.694770
     15 H4          2.7100   -1.8080    5.4280 hn        1 MOL      0.340361
     16 H5          1.2410   -1.6640    2.9290 h1        1 MOL      0.100703
     17 H6          4.2670   -1.8300    3.2920 hc        1 MOL      0.096654
     18 H7          3.3080   -0.4470    3.6970 hc        1 MOL      0.096654
     19 N2          1.6750   -3.7400    1.6090 n         1 MOL     -0.481102
     20 C7          1.8540   -5.0440    0.8460 c3        1 MOL      0.031046
     21 C8          2.9860   -5.2030   -0.1060 c         1 MOL      0.587903
     22 O5          3.2680   -6.3080   -0.5150 o         1 MOL     -0.571431
     23 C9          0.5120   -5.3050    0.1910 c3        1 MOL     -0.115726
     24 C10         0.2630   -4.2640   -0.8640 c3        1 MOL      0.042250
     25 C11        -0.7730   -4.7900   -1.9350 c3        1 MOL     -0.110091
     26 C12        -1.1740   -3.7280   -2.9990 c3        1 MOL      0.106285
     27 N3          0.0570   -3.1520   -3.6650 n4        1 MOL     -0.363170
     28 H8          1.3080   -2.9620    1.0860 hn        1 MOL      0.166730
     29 H9          1.9920   -5.8450    1.5780 h1        1 MOL      0.108812
     30 H10        -0.2770   -5.2910    0.9420 hc        1 MOL      0.041337
     31 H11         0.6170   -6.2630   -0.3200 hc        1 MOL      0.041337
     32 H12         1.1980   -4.0540   -1.3710 hc        1 MOL      0.049629
     33 H13        -0.1630   -3.3520   -0.4410 hc        1 MOL      0.049629
     34 H14        -1.6450   -5.1940   -1.4080 hc        1 MOL      0.043665
     35 H15        -0.3270   -5.6340   -2.4690 hc        1 MOL      0.043665
     36 H16        -1.8110   -2.9600   -2.5620 hx        1 MOL      0.025822
     37 H17        -1.7350   -4.2820   -3.7520 hx        1 MOL      0.025822
     38 H18         0.6400   -3.8920   -4.0320 hn        1 MOL      0.308723
     39 H19        -0.2900   -2.5430   -4.3990 hn        1 MOL      0.308723
     40 H20         0.6110   -2.5880   -3.0300 hn        1 MOL      0.308723
     41 N4          3.7910   -4.1810   -0.4410 n         1 MOL     -0.553929
     42 C13         4.8210   -4.1550   -1.5480 c3        1 MOL      0.318012
     43 C14         6.1480   -3.4810   -1.1280 c         1 MOL      0.363818
     44 O6          7.1920   -3.7200   -1.7750 o         1 MOL     -0.519717
     45 C15         4.1990   -3.5040   -2.7990 c3        1 MOL     -0.467197
     46 C16         3.5220   -2.1660   -2.4800 c         1 MOL      0.810951
     47 O7          4.2150   -1.2250   -2.0670 o         1 MOL     -0.733163
     48 O8          2.2500   -2.1000   -2.4230 o         1 MOL     -0.733163
     49 H21         3.5620   -3.2920   -0.0320 hn        1 MOL      0.251616
     50 H22         5.1790   -5.1410   -1.8400 h1        1 MOL      0.064676
     51 H23         3.4980   -4.2490   -3.1710 hc        1 MOL      0.109908
     52 H24         5.0860   -3.4260   -3.4340 hc        1 MOL      0.109908
     53 N5          6.0830   -2.5970   -0.0720 n         1 MOL     -0.192810
     54 C17         7.1450   -1.8910    0.5320 c3        1 MOL     -0.338494
     55 C18         7.4900   -0.5860   -0.2490 c         1 MOL      0.542246
     56 O9          8.4920    0.0860    0.1380 o         1 MOL     -0.594259
     57 H25         5.1600   -2.3680    0.2520 hn        1 MOL      0.216778
     58 H26         7.9640   -2.6010    0.4140 h1        1 MOL      0.161369
     59 H27         6.9150   -1.7150    1.5800 h1        1 MOL      0.161369
     60 N6          6.6970   -0.0660   -1.1570 n         1 MOL     -0.304333
     61 C19         7.0230    1.1860   -1.9070 c3        1 MOL      0.025490
     62 C20         6.9470    2.5050   -1.0370 c         1 MOL      0.405223
     63 O10         7.5020    3.5500   -1.4560 o         1 MOL     -0.526799
     64 C21         6.1090    1.3650   -3.1150 c3        1 MOL     -0.260101
     65 C22         4.6460    1.6540   -2.7650 c         1 MOL      0.846393
     66 O11         4.1700    1.5800   -1.5940 o         1 MOL     -0.744472
     67 O12         3.8470    1.9450   -3.7390 o         1 MOL     -0.744472
     68 H28         5.8010   -0.4900   -1.3530 hn        1 MOL      0.302296
     69 H29         8.0700    1.0670   -2.1940 h1        1 MOL      0.105703
     70 H30         6.0650    0.3920   -3.6070 hc        1 MOL      0.084395
     71 H31         6.5080    2.0290   -3.8770 hc        1 MOL      0.084395
     72 N7          6.2080    2.4680    0.1280 n         1 MOL     -0.148477
     73 C23         6.0830    3.6540    0.9970 c3        1 MOL     -0.363107
     74 C24         4.8510    4.5070    0.8050 c         1 MOL      0.620708
     75 O13         4.8130    5.4950    1.4620 o         1 MOL     -0.574402
     76 H32         5.7690    1.5910    0.3560 hn        1 MOL      0.211681
     77 H33         6.9920    4.2570    0.9360 h1        1 MOL      0.151215
     78 H34         6.0830    3.2000    1.9900 h1        1 MOL      0.151215
     79 N8          3.9690    4.1070   -0.1090 n         1 MOL     -0.135050
     80 C25         2.6350    4.6720   -0.2500 c3        1 MOL     -0.307772
     81 C26         1.5710    3.6290    0.0050 c         1 MOL      0.670625
     82 O14         1.6220    2.5200   -0.4120 o         1 MOL     -0.610983
     83 C27         2.2830    5.5150   -1.5310 c3        1 MOL      0.406359
     84 C28         3.2520    6.6720   -1.7340 c3        1 MOL     -0.194919
     85 O15         2.2420    4.7450   -2.7060 oh        1 MOL     -0.643942
     86 H35         4.1890    3.2270   -0.5570 hn        1 MOL      0.147051
     87 H36         2.5770    5.4320    0.5270 h1        1 MOL      0.086692
     88 H37         1.2570    5.8890   -1.4490 h1        1 MOL      0.012293
     89 H38         2.7440    3.9330   -2.5650 ho        1 MOL      0.407167
     90 H39         4.3080    6.3860   -1.6790 hc        1 MOL      0.049353
     91 H40         3.0830    7.2810   -2.6240 hc        1 MOL      0.049353
     92 H41         2.9970    7.3950   -0.9640 hc        1 MOL      0.049353
     93 N9          0.4150    4.1390    0.5390 n         1 MOL     -0.511441
     94 C29        -0.6050    3.2860    1.1230 c3        1 MOL      0.235365
     95 C30        -1.8310    3.5330    0.2200 c         1 MOL      0.341197
     96 O16        -2.3590    4.6310    0.2330 o         1 MOL     -0.516436
     97 C31        -0.7890    3.6620    2.6310 c3        1 MOL     -0.011450
     98 C32         0.4900    3.2090    3.3860 c3        1 MOL     -0.301693
     99 C33        -1.9460    2.9500    3.3560 c3        1 MOL     -0.392844
    100 C34         0.8170    1.6900    3.5000 c3        1 MOL      0.058704
    101 H42         0.4960    5.1210    0.7620 hn        1 MOL      0.281329
    102 H43        -0.3810    2.2310    0.9640 h1        1 MOL      0.145956
    103 H44        -0.9200    4.7330    2.7510 hc        1 MOL      0.068618
    104 H45         0.4860    3.5100    4.4270 hc        1 MOL      0.082226
    105 H46         1.3750    3.6480    2.9250 hc        1 MOL      0.082226
    106 H47        -1.8880    1.8670    3.2290 hc        1 MOL      0.125091
    107 H48        -1.8340    3.0260    4.4330 hc        1 MOL      0.125091
    108 H49        -2.8300    3.3590    2.8760 hc        1 MOL      0.125091
    109 H50         0.2230    1.2660    4.3140 hc        1 MOL      0.009031
    110 H51         0.6230    1.1680    2.5620 hc        1 MOL      0.009031
    111 H52         1.8340    1.5470    3.8370 hc        1 MOL      0.009031
    112 N10        -2.1530    2.4900   -0.5350 n         1 MOL     -0.097830
    113 C35        -3.3600    2.4510   -1.4120 c3        1 MOL      0.046646
    114 C36        -4.6640    2.2830   -0.5360 c         1 MOL      0.277508
    115 O17        -4.6360    2.0780    0.6890 o         1 MOL     -0.262928
    116 C37        -3.2280    1.3050   -2.3760 c3        1 MOL      0.393112
    117 C38        -2.0890    1.5260   -3.3510 c3        1 MOL     -0.447947
    118 O18        -2.9210    0.0540   -1.7150 oh        1 MOL     -0.672947
    119 H53        -1.7290    1.6040   -0.2820 hn        1 MOL     -0.143791
    120 H54        -3.4780    3.3540   -2.0060 h1        1 MOL      0.087007
    121 H55        -4.1930    1.1970   -2.8610 h1        1 MOL     -0.023800
    122 H56        -1.9740    0.0070   -1.5530 ho        1 MOL      0.431324
    123 H57        -1.9900    0.7070   -4.0700 hc        1 MOL      0.107824
    124 H58        -2.2740    2.4350   -3.9200 hc        1 MOL      0.107824
    125 H59        -1.1270    1.4550   -2.8420 hc        1 MOL      0.107824
    126 N11        -5.8430    2.4740   -1.1150 n         1 MOL     -0.320551
    127 C39        -7.1440    2.3160   -0.3610 c3        1 MOL      0.081128
    128 C40        -7.3440    0.9410    0.2900 c         1 MOL      0.293327
    129 O19        -7.8100    0.8760    1.4360 o         1 MOL     -0.452910
    130 C41        -8.3800    2.6920   -1.2220 c3        1 MOL      0.405751
    131 C42        -9.3220    3.4160   -0.2320 c3        1 MOL     -0.404402
    132 O20        -8.0100    3.5780   -2.2590 oh        1 MOL     -0.627344
    133 H60        -5.8910    2.6340   -2.1010 hn        1 MOL      0.224106
    134 H61        -7.1370    2.9890    0.4970 h1        1 MOL      0.101030
    135 H62        -8.6980    1.7520   -1.6780 h1        1 MOL     -0.067919
    136 H63        -8.7950    3.7880   -2.7800 ho        1 MOL      0.406354
    137 H64       -10.1540    3.6500   -0.9050 hc        1 MOL      0.112390
    138 H65        -9.7090    2.7110    0.5130 hc        1 MOL      0.112390
    139 H66        -8.8760    4.3270    0.1660 hc        1 MOL      0.112390
    140 N12        -7.0140   -0.0750   -0.4980 n         1 MOL     -0.369652
    141 C43        -6.8060   -1.5120   -0.1220 c3        1 MOL      0.073034
    142 C44        -5.5750   -1.7410    0.7890 c         1 MOL      0.454645
    143 O21        -5.0310   -2.8210    0.8280 o         1 MOL     -0.571624
    144 C45        -6.9310   -2.3560   -1.3850 c3        1 MOL     -0.011394
    145 C46        -8.4030   -2.3510   -1.9320 c3        1 MOL      0.094158
    146 C47        -8.5480   -3.3560   -3.1010 c3        1 MOL     -0.129672
    147 C48        -9.9140   -3.2100   -3.7730 c3        1 MOL      0.117129
    148 N13       -10.9600   -3.9900   -3.1340 n4        1 MOL     -0.391644
    149 H67        -6.7530    0.1770   -1.4410 hn        1 MOL      0.302713
    150 H68        -7.6050   -1.8370    0.5390 h1        1 MOL      0.090443
    151 H69        -6.6840   -3.3820   -1.1200 hc        1 MOL      0.024652
    152 H70        -6.2310   -2.0060   -2.1450 hc        1 MOL      0.024652
    153 H71        -8.5910   -1.3400   -2.3000 hc        1 MOL     -0.031262
    154 H72        -9.1200   -2.6330   -1.1630 hc        1 MOL     -0.031262
    155 H73        -8.4500   -4.3650   -2.7100 hc        1 MOL      0.072229
    156 H74        -7.8340   -3.1400   -3.8950 hc        1 MOL      0.072229
    157 H75        -9.7670   -3.6530   -4.7550 hx        1 MOL      0.063862
    158 H76       -10.2830   -2.1910   -3.9270 hx        1 MOL      0.063862
    159 H77       -11.2150   -3.5440   -2.2710 hn        1 MOL      0.339495
    160 H78       -11.8300   -4.0020   -3.6370 hn        1 MOL      0.339495
    161 H79       -10.5930   -4.9070   -2.8810 hn        1 MOL      0.339495
    162 N14        -5.0400   -0.7700    1.4800 n         1 MOL     -0.014252
    163 C49        -3.9230   -0.8580    2.4690 c3        1 MOL     -0.229793
    164 C50        -4.2970    0.0860    3.6450 c         1 MOL      0.438120
    165 O22        -4.1000   -0.2160    4.7880 o         1 MOL     -0.495785
    166 C51        -2.4960   -0.5330    1.9240 c3        1 MOL      0.131822
    167 C52        -1.8450   -1.4870    0.8630 c3        1 MOL     -0.144453
    168 C53        -0.5120   -0.9360    0.2190 c         1 MOL      0.378896
    169 O23        -0.5420   -0.1680   -0.7780 o         1 MOL     -0.507530
    170 O24         0.6020   -1.3220    0.6180 o         1 MOL     -0.507530
    171 H80        -5.4760    0.1260    1.2890 hn        1 MOL     -0.106977
    172 H81        -3.9080   -1.8610    2.8940 h1        1 MOL      0.156893
    173 H82        -1.8260   -0.6020    2.7770 hc        1 MOL      0.037880
    174 H83        -2.6070    0.4820    1.5310 hc        1 MOL      0.037880
    175 H84        -2.5070   -1.8020    0.0610 hc        1 MOL      0.093513
    176 H85        -1.5890   -2.3710    1.4600 hc        1 MOL      0.093513
    177 N15        -4.9240    1.2630    3.3630 n         1 MOL     -0.131875
    178 C54        -5.2060    2.3490    4.3440 c3        1 MOL     -0.153358
    179 H86        -4.2870    2.6100    4.8700 h1        1 MOL      0.075192
    180 H87        -5.5860    3.2260    3.8190 h1        1 MOL      0.075192
    181 H88        -5.9500    2.0050    5.0630 h1        1 MOL      0.075192
    182 H89        -4.9300    1.5790    2.4070 hn        1 MOL      0.151364
    183 Ca1         2.2350    0.0470   -0.9790 Ca        1 MOL      1.682891
    184 O25         1.5150    0.5960   -3.4070 oh        1 MOL     -1.003245
    185 H90         0.9080    0.7810   -4.1240 ho        1 MOL      0.457251
    186 H91         2.3130    1.0720   -3.6490 ho        1 MOL      0.457251
@<TRIPOS>BOND
     1    1    2 1   
     2    1    4 1   
     3    1    5 1   
     4    1    6 1   
     5    2    3 2   
     6    2    7 1   
     7    7    8 1   
     8    7   15 1   
     9    8    9 1   
    10    8   11 1   
    11    8   16 1   
    12    9   10 2   
    13    9   19 1   
    14   11   12 1   
    15   11   17 1   
    16   11   18 1   
    17   12   13 1   
    18   12   14 1   
    19   19   20 1   
    20   19   28 1   
    21   20   21 1   
    22   20   23 1   
    23   20   29 1   
    24   21   22 2   
    25   21   41 1   
    26   23   24 1   
    27   23   30 1   
    28   23   31 1   
    29   24   25 1   
    30   24   32 1   
    31   24   33 1   
    32   25   26 1   
    33   25   34 1   
    34   25   35 1   
    35   26   27 1   
    36   26   36 1   
    37   26   37 1   
    38   27   38 1   
    39   27   39 1   
    40   27   40 1   
    41   41   42 1   
    42   41   49 1   
    43   42   43 1   
    44   42   45 1   
    45   42   50 1   
    46   43   44 2   
    47   43   53 1   
    48   45   46 1   
    49   45   51 1   
    50   45   52 1   
    51   46   47 1   
    52   46   48 1   
    53   53   54 1   
    54   53   57 1   
    55   54   55 1   
    56   54   58 1   
    57   54   59 1   
    58   55   56 2   
    59   55   60 1   
    60   60   61 1   
    61   60   68 1   
    62   61   62 1   
    63   61   64 1   
    64   61   69 1   
    65   62   63 2   
    66   62   72 1   
    67   64   65 1   
    68   64   70 1   
    69   64   71 1   
    70   65   66 1   
    71   65   67 1   
    72   72   73 1   
    73   72   76 1   
    74   73   74 1   
    75   73   77 1   
    76   73   78 1   
    77   74   75 2   
    78   74   79 1   
    79   79   80 1   
    80   79   86 1   
    81   80   81 1   
    82   80   83 1   
    83   80   87 1   
    84   81   82 2   
    85   81   93 1   
    86   83   84 1   
    87   83   85 1   
    88   83   88 1   
    89   84   90 1   
    90   84   91 1   
    91   84   92 1   
    92   85   89 1   
    93   93   94 1   
    94   93  101 1   
    95   94   95 1   
    96   94   97 1   
    97   94  102 1   
    98   95   96 2   
    99   95  112 1   
   100   97   98 1   
   101   97   99 1   
   102   97  103 1   
   103   98  100 1   
   104   98  104 1   
   105   98  105 1   
   106   99  106 1   
   107   99  107 1   
   108   99  108 1   
   109  100  109 1   
   110  100  110 1   
   111  100  111 1   
   112  112  113 1   
   113  112  119 1   
   114  113  114 1   
   115  113  116 1   
   116  113  120 1   
   117  114  115 2   
   118  114  126 1   
   119  116  117 1   
   120  116  118 1   
   121  116  121 1   
   122  117  123 1   
   123  117  124 1   
   124  117  125 1   
   125  118  122 1   
   126  126  127 1   
   127  126  133 1   
   128  127  128 1   
   129  127  130 1   
   130  127  134 1   
   131  128  129 2   
   132  128  140 1   
   133  130  131 1   
   134  130  132 1   
   135  130  135 1   
   136  131  137 1   
   137  131  138 1   
   138  131  139 1   
   139  132  136 1   
   140  140  141 1   
   141  140  149 1   
   142  141  142 1   
   143  141  144 1   
   144  141  150 1   
   145  142  143 2   
   146  142  162 1   
   147  144  145 1   
   148  144  151 1   
   149  144  152 1   
   150  145  146 1   
   151  145  153 1   
   152  145  154 1   
   153  146  147 1   
   154  146  155 1   
   155  146  156 1   
   156  147  148 1   
   157  147  157 1   
   158  147  158 1   
   159  148  159 1   
   160  148  160 1   
   161  148  161 1   
   162  162  163 1   
   163  162  171 1   
   164  163  164 1   
   165  163  166 1   
   166  163  172 1   
   167  164  165 2   
   168  164  177 1   
   169  166  167 1   
   170  166  173 1   
   171  166  174 1   
   172  167  168 1   
   173  167  175 1   
   174  167  176 1   
   175  168  169 1   
   176  168  170 1   
   177  177  178 1   
   178  177  182 1   
   179  178  179 1   
   180  178  180 1   
   181  178  181 1   
   182  184  185 1   
   183  184  186 1   
@<TRIPOS>SUBSTRUCTURE
     1 MOL         1 TEMP              0 ****  ****    0 ROOT
