@<TRIPOS>MOLECULE
MOL
  186   183     1     0     0
SMALL
resp


@<TRIPOS>ATOM
      1 C1          0.8050   -2.5680    6.5420 c3        1 MOL     -0.260837
      2 C2          1.0630   -2.3270    5.0020 c         1 MOL      0.669997
      3 O1          0.2830   -2.7050    4.0990 o         1 MOL     -0.614171
      4 H1         -0.2390   -2.3580    6.7720 hc        1 MOL      0.065799
      5 H2          1.0290   -3.6050    6.7900 hc        1 MOL      0.065799
      6 H3          1.4460   -1.9080    7.1260 hc        1 MOL      0.065799
      7 N1          2.1950   -1.8230    4.5720 n         1 MOL     -0.562700
      8 C3          2.6250   -1.7070    3.1450 c3        1 MOL      0.030732
      9 C4          2.9530   -3.1000    2.6600 c         1 MOL      0.670520
     10 O2          3.8560   -3.8380    3.1910 o         1 MOL     -0.614375
     11 C5          3.8480   -0.7550    3.0220 c3        1 MOL     -0.226329
     12 C6          4.4410   -0.3720    1.6620 c         1 MOL      0.791531
     13 O3          5.5600    0.1340    1.6210 o         1 MOL     -0.662973
     14 O4          3.8520   -0.8150    0.6040 o         1 MOL     -0.662973
     15 H4          2.8910   -1.5770    5.2550 hn        1 MOL      0.314406
     16 H5          1.7700   -1.2730    2.6280 h1        1 MOL      0.045031
     17 H6          4.6900   -1.2250    3.5210 hc        1 MOL      0.040173
     18 H7          3.5350    0.1150    3.5990 hc        1 MOL      0.040173
     19 N2          2.1420   -3.5380    1.7170 n         1 MOL     -0.325355
     20 C7          2.2280   -4.9560    1.2210 c3        1 MOL      0.004378
     21 C8          3.1490   -5.1220    0.0310 c         1 MOL      0.397143
     22 O5          3.9010   -6.1030   -0.0400 o         1 MOL     -0.569548
     23 C9          0.7460   -5.3450    0.8720 c3        1 MOL      0.273768
     24 C10        -0.0610   -5.1840    2.1490 c3        1 MOL     -0.150840
     25 C11         0.6170   -6.6240    0.1200 c3        1 MOL     -0.177879
     26 C12        -1.2840   -6.1140    2.1490 c3        1 MOL     -0.129594
     27 H8          1.4520   -2.9190    1.3090 hn        1 MOL      0.149852
     28 H9          2.5070   -5.6580    2.0030 h1        1 MOL      0.055530
     29 H10         0.4120   -4.6570    0.0980 hc        1 MOL      0.006333
     30 H11        -0.5940   -4.2310    2.2180 hc        1 MOL      0.078407
     31 H12         0.5340   -5.3660    3.0480 hc        1 MOL      0.078407
     32 H13        -0.4110   -6.7460   -0.2020 hc        1 MOL      0.027040
     33 H14         1.2830   -6.7670   -0.7260 hc        1 MOL      0.027040
     34 H15         0.8500   -7.4080    0.8510 hc        1 MOL      0.027040
     35 H16        -1.9580   -5.8650    1.3290 hc        1 MOL      0.021744
     36 H17        -0.9900   -7.1610    2.1710 hc        1 MOL      0.021744
     37 H18        -1.8860   -6.0100    3.0510 hc        1 MOL      0.021744
     38 N3          3.2890   -4.1390   -0.9110 n         1 MOL     -0.171117
     39 C13         4.0760   -4.1800   -2.1930 c3        1 MOL     -0.044399
     40 C14         5.3990   -3.3400   -2.0680 c         1 MOL      0.375517
     41 O6          6.2990   -3.4740   -2.8960 o         1 MOL     -0.531148
     42 C15         3.3390   -3.8190   -3.4420 c3        1 MOL     -0.184616
     43 C16         2.5660   -2.5450   -3.2930 c         1 MOL      0.780953
     44 O7          1.4990   -2.4090   -3.9300 o         1 MOL     -0.694561
     45 O8          3.0980   -1.6870   -2.5220 o         1 MOL     -0.694561
     46 H19         2.6530   -3.3640   -0.7650 hn        1 MOL      0.151476
     47 H20         4.4010   -5.2190   -2.2560 h1        1 MOL      0.093466
     48 H21         2.7060   -4.6650   -3.7160 hc        1 MOL      0.053299
     49 H22         4.0650   -3.6680   -4.2430 hc        1 MOL      0.053299
     50 N4          5.6570   -2.7590   -0.9330 n         1 MOL      0.038663
     51 C17         6.9770   -2.3660   -0.4750 c3        1 MOL     -0.384208
     52 C18         7.5300   -1.2430   -1.3660 c         1 MOL      0.653760
     53 O9          8.6010   -1.3340   -1.9750 o         1 MOL     -0.592279
     54 H23         4.9310   -2.7790   -0.2310 hn        1 MOL      0.158761
     55 H24         7.6510   -3.2240   -0.4490 h1        1 MOL      0.127064
     56 H25         6.9720   -2.0130    0.5480 h1        1 MOL      0.127064
     57 N5          6.8300   -0.0670   -1.2870 n         1 MOL     -0.249969
     58 C19         7.2080    1.2330   -1.8860 c3        1 MOL     -0.025233
     59 C20         6.9830    2.4390   -0.8330 c         1 MOL      0.529929
     60 O10         6.9050    3.5850   -1.2530 o         1 MOL     -0.565884
     61 C21         6.3790    1.5420   -3.1490 c3        1 MOL      0.109197
     62 C22         4.8950    1.5570   -2.9300 c         1 MOL      0.646607
     63 O11         4.4680    1.2910   -1.7960 o         1 MOL     -0.735801
     64 O12         4.1550    1.8450   -3.9230 o         1 MOL     -0.735801
     65 H26         6.1360   -0.0790   -0.5530 hn        1 MOL     -0.072157
     66 H27         8.2730    1.2130   -2.1050 h1        1 MOL      0.038973
     67 H28         6.7140    0.8130   -3.8870 hc        1 MOL     -0.022561
     68 H29         6.6810    2.4880   -3.6120 hc        1 MOL     -0.022561
     69 N6          6.9730    2.2390    0.4760 n         1 MOL     -0.355066
     70 C23         7.0850    3.2430    1.5400 c3        1 MOL     -0.254821
     71 C24         5.7830    3.9690    1.9400 c         1 MOL      0.612969
     72 O13         5.8800    5.0010    2.6150 o         1 MOL     -0.576648
     73 H30         6.8160    1.2900    0.7810 hn        1 MOL      0.313230
     74 H31         7.8550    3.9000    1.1510 h1        1 MOL      0.121757
     75 H32         7.4500    2.7690    2.4530 h1        1 MOL      0.121757
     76 N7          4.5830    3.4080    1.5670 n         1 MOL     -0.437020
     77 C25         3.3350    4.0780    1.7090 c3        1 MOL     -0.036258
     78 C26         2.2190    3.0890    1.6300 c         1 MOL      0.650650
     79 O14         2.2990    2.0330    0.9640 o         1 MOL     -0.584058
     80 C27         3.1900    5.0190    0.4830 c3        1 MOL      0.119776
     81 C28         3.9000    6.4110    0.4090 c3        1 MOL     -0.415532
     82 C29         3.4300    7.3580   -0.6940 c         1 MOL      0.690052
     83 N8          3.6430    7.0290   -1.9850 n         1 MOL     -0.827204
     84 O15         2.7250    8.3090   -0.4580 o         1 MOL     -0.573659
     85 H33         4.6220    2.5470    1.0440 hn        1 MOL      0.310506
     86 H34         3.2690    4.6550    2.6260 h1        1 MOL      0.080649
     87 H35         2.1090    5.1500    0.3670 hc        1 MOL      0.037851
     88 H36         3.3550    4.5100   -0.4580 hc        1 MOL      0.037851
     89 H37         4.9700    6.2750    0.2410 hc        1 MOL      0.120337
     90 H38         3.8230    6.8630    1.3940 hc        1 MOL      0.120337
     91 H39         4.2450    6.2410   -2.1500 hn        1 MOL      0.374182
     92 H40         3.3240    7.6380   -2.7210 hn        1 MOL      0.374182
     93 N9          1.0430    3.4060    2.2520 n         1 MOL     -0.604471
     94 C30        -0.1300    2.4500    2.3190 c3        1 MOL      0.142101
     95 C31        -1.2670    3.0830    1.4530 c         1 MOL      0.458315
     96 O16        -1.6740    4.1750    1.7610 o         1 MOL     -0.575534
     97 C32        -0.6010    2.0770    3.7500 c3        1 MOL      0.126918
     98 C33        -1.9980    1.4310    3.8950 c3        1 MOL     -0.182879
     99 C34         0.4520    1.1410    4.3980 c3        1 MOL     -0.182879
    100 H41         0.9570    4.2730    2.7540 hn        1 MOL      0.301189
    101 H42         0.1530    1.4860    1.8830 h1        1 MOL      0.086563
    102 H43        -0.7370    3.0070    4.3040 hc        1 MOL     -0.007618
    103 H44        -2.3820    1.5200    4.9110 hc        1 MOL      0.034595
    104 H45        -2.6800    1.9260    3.2060 hc        1 MOL      0.034595
    105 H46        -2.0450    0.3870    3.6050 hc        1 MOL      0.034595
    106 H47         1.4270    1.6160    4.4060 hc        1 MOL      0.034595
    107 H48         0.2110    0.9790    5.4510 hc        1 MOL      0.034595
    108 H49         0.4720    0.2470    3.7710 hc        1 MOL      0.034595
    109 N10        -1.6810    2.4490    0.3860 n         1 MOL     -0.247413
    110 C35        -2.7440    2.7830   -0.5610 c3        1 MOL      0.113140
    111 C36        -4.0040    2.1090   -0.0080 c         1 MOL      0.458958
    112 O17        -4.0570    1.2910    0.8880 o         1 MOL     -0.338500
    113 C37        -2.3330    2.2370   -1.9470 c3        1 MOL     -0.491225
    114 C38        -3.4190    2.4860   -2.9510 c         1 MOL      0.733226
    115 N11        -3.6720    3.7340   -3.2840 n         1 MOL     -0.794425
    116 O18        -4.1990    1.6150   -3.3380 o         1 MOL     -0.534315
    117 H50        -1.1880    1.5810    0.2300 hn        1 MOL      0.230352
    118 H51        -2.9890    3.8420   -0.6320 h1        1 MOL      0.036881
    119 H52        -2.1130    1.1720   -1.8670 hc        1 MOL      0.166308
    120 H53        -1.4290    2.7730   -2.2670 hc        1 MOL      0.166308
    121 H54        -3.1210    4.4860   -2.9080 hn        1 MOL      0.361309
    122 H55        -4.3880    4.0160   -3.9390 hn        1 MOL      0.361309
    123 N12        -5.1400    2.4500   -0.6040 n         1 MOL     -0.564620
    124 C39        -6.4820    2.0020   -0.1510 c3        1 MOL      0.208823
    125 C40        -6.6190    0.5210   -0.3760 c         1 MOL      0.647403
    126 O19        -7.1100   -0.1940    0.4870 o         1 MOL     -0.554662
    127 C41        -7.5170    2.7900   -0.8620 c3        1 MOL     -0.080783
    128 C42        -8.9640    2.4320   -0.4570 ca        1 MOL     -0.159873
    129 C43        -9.3870    2.7520    0.8200 ca        1 MOL     -0.034766
    130 C44        -9.7300    1.6060   -1.2670 ca        1 MOL     -0.034766
    131 C45       -10.6550    2.3830    1.2950 ca        1 MOL     -0.330601
    132 C46       -11.0550    1.3000   -0.9210 ca        1 MOL     -0.330601
    133 C47       -11.5030    1.6460    0.4100 ca        1 MOL      0.395825
    134 O20       -12.6400    1.0620    0.8190 oh        1 MOL     -0.531057
    135 H56        -5.0710    3.0150   -1.4370 hn        1 MOL      0.248820
    136 H57        -6.6250    2.2040    0.9070 h1        1 MOL      0.040620
    137 H58        -7.3610    2.6510   -1.9300 hc        1 MOL      0.052662
    138 H59        -7.3440    3.8510   -0.7080 hc        1 MOL      0.052662
    139 H60        -8.6610    3.2030    1.4730 ha        1 MOL      0.112900
    140 H61        -9.3390    1.2290   -2.1990 ha        1 MOL      0.112900
    141 H62       -10.8390    2.6350    2.3310 ha        1 MOL      0.157516
    142 H63       -11.7510    0.6900   -1.4760 ha        1 MOL      0.157516
    143 H64       -13.0180    0.3950    0.2440 ho        1 MOL      0.387455
    144 N13        -6.1320   -0.0030   -1.4350 n         1 MOL     -0.481357
    145 C48        -6.1000   -1.4620   -1.7560 c3        1 MOL     -0.020782
    146 C49        -5.3820   -2.2420   -0.6480 c         1 MOL      0.325235
    147 O21        -5.7580   -3.3710   -0.3410 o         1 MOL     -0.515618
    148 C50        -5.3390   -1.5560   -3.0810 c3        1 MOL      0.136688
    149 C51        -5.3610   -3.0020   -3.5290 c3        1 MOL     -0.314046
    150 C52        -4.5870   -3.2540   -4.8050 c         1 MOL      0.820045
    151 O22        -4.1890   -4.4160   -4.9100 o         1 MOL     -0.770945
    152 O23        -4.4760   -2.3730   -5.6480 o         1 MOL     -0.770945
    153 H65        -5.7140    0.6850   -2.0560 hn        1 MOL      0.243162
    154 H66        -7.1210   -1.8320   -1.8110 h1        1 MOL      0.103869
    155 H67        -4.2860   -1.2910   -2.9960 hc        1 MOL     -0.010155
    156 H68        -5.8060   -0.9140   -3.8260 hc        1 MOL     -0.010155
    157 H69        -6.4040   -3.3040   -3.6280 hc        1 MOL      0.050865
    158 H70        -4.7580   -3.5850   -2.8370 hc        1 MOL      0.050865
    159 N14        -4.4610   -1.6060    0.0720 n         1 MOL     -0.039337
    160 C53        -3.7180   -2.1520    1.1550 c3        1 MOL     -0.136838
    161 C54        -4.3260   -1.9800    2.5550 c         1 MOL      0.420176
    162 O24        -4.1570   -2.7560    3.5050 o         1 MOL     -0.578129
    163 C55        -2.2500   -1.6590    1.1260 c3        1 MOL      0.229976
    164 C56        -1.6260   -1.7390   -0.3250 c3        1 MOL     -0.284777
    165 C57        -0.2240   -1.2280   -0.2000 c         1 MOL      0.807254
    166 O25         0.8000   -1.8810   -0.5180 o         1 MOL     -0.789544
    167 O26        -0.0430   -0.0030    0.0590 o         1 MOL     -0.789544
    168 H71        -4.2460   -0.6280   -0.0850 hn        1 MOL      0.180158
    169 H72        -3.6010   -3.2230    0.9970 h1        1 MOL      0.116432
    170 H73        -1.7050   -2.4080    1.6960 hc        1 MOL      0.003694
    171 H74        -2.1730   -0.6380    1.4890 hc        1 MOL      0.003694
    172 H75        -2.1050   -1.0660   -1.0430 hc        1 MOL      0.088745
    173 H76        -1.6030   -2.7450   -0.7190 hc        1 MOL      0.088745
    174 N15        -5.1570   -0.9910    2.6240 n         1 MOL      0.061646
    175 C58        -5.9400   -0.5620    3.7810 c3        1 MOL     -0.300151
    176 H77        -6.9850   -0.4470    3.4900 h1        1 MOL      0.100810
    177 H78        -5.8640   -1.3100    4.5690 h1        1 MOL      0.100810
    178 H79        -5.5580    0.3910    4.1470 h1        1 MOL      0.100810
    179 H80        -5.1300   -0.4490    1.7660 hn        1 MOL     -0.069660
    180 Ca1         2.2230    0.1950   -1.1120 Ca        1 MOL      1.760774
    181 O27         1.9790    2.9020   -1.9080 oh        1 MOL     -0.914669
    182 H81         2.7270    3.4850   -1.9820 ho        1 MOL      0.425689
    183 H82         1.6350    2.8200   -2.7970 ho        1 MOL      0.425689
    184 O28         0.6060   -0.0320   -3.2020 oh        1 MOL     -0.914669
    185 H83        -0.1530    0.2680   -3.7010 ho        1 MOL      0.425689
    186 H84         0.7390   -0.9420   -3.4820 ho        1 MOL      0.425689
@<TRIPOS>BOND
     1    1    2 1   
     2    1    4 1   
     3    1    5 1   
     4    1    6 1   
     5    2    3 2   
     6    2    7 1   
     7    7    8 1   
     8    7   15 1   
     9    8    9 1   
    10    8   11 1   
    11    8   16 1   
    12    9   10 2   
    13    9   19 1   
    14   11   12 1   
    15   11   17 1   
    16   11   18 1   
    17   12   13 1   
    18   12   14 1   
    19   19   20 1   
    20   19   27 1   
    21   20   21 1   
    22   20   23 1   
    23   20   28 1   
    24   21   22 2   
    25   21   38 1   
    26   23   24 1   
    27   23   25 1   
    28   23   29 1   
    29   24   26 1   
    30   24   30 1   
    31   24   31 1   
    32   25   32 1   
    33   25   33 1   
    34   25   34 1   
    35   26   35 1   
    36   26   36 1   
    37   26   37 1   
    38   38   39 1   
    39   38   46 1   
    40   39   40 1   
    41   39   42 1   
    42   39   47 1   
    43   40   41 2   
    44   40   50 1   
    45   42   43 1   
    46   42   48 1   
    47   42   49 1   
    48   43   44 1   
    49   43   45 1   
    50   50   51 1   
    51   50   54 1   
    52   51   52 1   
    53   51   55 1   
    54   51   56 1   
    55   52   53 2   
    56   52   57 1   
    57   57   58 1   
    58   57   65 1   
    59   58   59 1   
    60   58   61 1   
    61   58   66 1   
    62   59   60 2   
    63   59   69 1   
    64   61   62 1   
    65   61   67 1   
    66   61   68 1   
    67   62   63 1   
    68   62   64 1   
    69   69   70 1   
    70   69   73 1   
    71   70   71 1   
    72   70   74 1   
    73   70   75 1   
    74   71   72 2   
    75   71   76 1   
    76   76   77 1   
    77   76   85 1   
    78   77   78 1   
    79   77   80 1   
    80   77   86 1   
    81   78   79 2   
    82   78   93 1   
    83   80   81 1   
    84   80   87 1   
    85   80   88 1   
    86   81   82 1   
    87   81   89 1   
    88   81   90 1   
    89   82   83 1   
    90   82   84 2   
    91   83   91 1   
    92   83   92 1   
    93   93   94 1   
    94   93  100 1   
    95   94   95 1   
    96   94   97 1   
    97   94  101 1   
    98   95   96 2   
    99   95  109 1   
   100   97   98 1   
   101   97   99 1   
   102   97  102 1   
   103   98  103 1   
   104   98  104 1   
   105   98  105 1   
   106   99  106 1   
   107   99  107 1   
   108   99  108 1   
   109  109  110 1   
   110  109  117 1   
   111  110  111 1   
   112  110  113 1   
   113  110  118 1   
   114  111  112 2   
   115  111  123 1   
   116  113  114 1   
   117  113  119 1   
   118  113  120 1   
   119  114  115 1   
   120  114  116 2   
   121  115  121 1   
   122  115  122 1   
   123  123  124 1   
   124  123  135 1   
   125  124  125 1   
   126  124  127 1   
   127  124  136 1   
   128  125  126 2   
   129  125  144 1   
   130  127  128 1   
   131  127  137 1   
   132  127  138 1   
   133  128  129 ar  
   134  128  130 ar  
   135  129  131 ar  
   136  129  139 1   
   137  130  132 ar  
   138  130  140 1   
   139  131  133 ar  
   140  131  141 1   
   141  132  133 ar  
   142  132  142 1   
   143  133  134 1   
   144  134  143 1   
   145  144  145 1   
   146  144  153 1   
   147  145  146 1   
   148  145  148 1   
   149  145  154 1   
   150  146  147 2   
   151  146  159 1   
   152  148  149 1   
   153  148  155 1   
   154  148  156 1   
   155  149  150 1   
   156  149  157 1   
   157  149  158 1   
   158  150  151 1   
   159  150  152 1   
   160  159  160 1   
   161  159  168 1   
   162  160  161 1   
   163  160  163 1   
   164  160  169 1   
   165  161  162 2   
   166  161  174 1   
   167  163  164 1   
   168  163  170 1   
   169  163  171 1   
   170  164  165 1   
   171  164  172 1   
   172  164  173 1   
   173  165  166 1   
   174  165  167 1   
   175  174  175 1   
   176  174  179 1   
   177  175  176 1   
   178  175  177 1   
   179  175  178 1   
   180  181  182 1   
   181  181  183 1   
   182  184  185 1   
   183  184  186 1   
@<TRIPOS>SUBSTRUCTURE
     1 MOL         1 TEMP              0 ****  ****    0 ROOT
