@<TRIPOS>MOLECULE
MOL
  186   183     1     0     0
SMALL
resp


@<TRIPOS>ATOM
      1 C1          0.7740   -2.9820    6.0600 c3        1 MOL     -0.374111
      2 C2          0.7220   -2.9260    4.5160 c         1 MOL      0.657547
      3 O1          0.1910   -1.9690    3.8580 o         1 MOL     -0.587633
      4 H1          0.1820   -2.1650    6.4730 hc        1 MOL      0.095465
      5 H2          0.3680   -3.9340    6.4030 hc        1 MOL      0.095465
      6 H3          1.8070   -2.8860    6.3940 hc        1 MOL      0.095465
      7 N1          1.2550   -3.9380    3.8970 n         1 MOL     -0.518664
      8 C3          1.7790   -3.6910    2.5370 c3        1 MOL      0.076188
      9 C4          1.6600   -4.8600    1.5860 c         1 MOL      0.436122
     10 O2          1.7630   -6.0260    1.9540 o         1 MOL     -0.576653
     11 C5          3.2700   -3.3820    2.7490 c3        1 MOL      0.029140
     12 C6          4.0360   -3.1120    1.4070 c         1 MOL      0.642741
     13 O3          3.7970   -2.0870    0.7210 o         1 MOL     -0.639635
     14 O4          4.9170   -3.9000    1.0870 o         1 MOL     -0.639635
     15 H4          1.6390   -4.7290    4.4010 hn        1 MOL      0.323767
     16 H5          1.4010   -2.8000    2.0410 h1        1 MOL      0.169699
     17 H6          3.7630   -4.1190    3.3650 hc        1 MOL     -0.059427
     18 H7          3.3880   -2.4890    3.3620 hc        1 MOL     -0.059427
     19 N2          1.4200   -4.5540    0.2770 n         1 MOL     -0.190334
     20 C7          1.4380   -5.6270   -0.7910 c3        1 MOL      0.019251
     21 C8          2.5320   -5.3510   -1.8140 c         1 MOL      0.423064
     22 O5          2.7390   -6.1720   -2.6720 o         1 MOL     -0.581435
     23 C9          0.0150   -5.6120   -1.4460 c3        1 MOL      0.107442
     24 C10        -1.1330   -5.8060   -0.4280 c3        1 MOL     -0.250788
     25 C11        -0.0880   -6.7040   -2.5290 c3        1 MOL     -0.148356
     26 C12        -0.8600   -6.8980    0.6110 c3        1 MOL     -0.235592
     27 H8          1.1620   -3.6090    0.0300 hn        1 MOL      0.254181
     28 H9          1.6380   -6.6140   -0.3780 h1        1 MOL      0.105383
     29 H10         0.0030   -4.6130   -1.8900 hc        1 MOL      0.021609
     30 H11        -2.0720   -6.0550   -0.9170 hc        1 MOL      0.110811
     31 H12        -1.1910   -4.9650    0.2490 hc        1 MOL      0.110811
     32 H13         0.3580   -6.3690   -3.4630 hc        1 MOL      0.035460
     33 H14         0.3880   -7.6030   -2.1550 hc        1 MOL      0.035460
     34 H15        -1.1150   -6.9680   -2.7790 hc        1 MOL      0.035460
     35 H16        -1.8380   -7.3070    0.8510 hc        1 MOL      0.057453
     36 H17        -0.1100   -7.6310    0.3110 hc        1 MOL      0.057453
     37 H18        -0.5450   -6.4220    1.5310 hc        1 MOL      0.057453
     38 N3          3.1280   -4.1720   -1.8340 n         1 MOL     -0.109297
     39 C13         3.9430   -3.7620   -3.0280 c3        1 MOL      0.096743
     40 C14         5.3030   -3.1340   -2.6560 c         1 MOL      0.268033
     41 O6          6.1640   -3.2130   -3.5160 o         1 MOL     -0.575219
     42 C15         3.2510   -2.7370   -3.8640 c3        1 MOL     -0.186903
     43 C16         2.6490   -1.5520   -3.0380 c         1 MOL      0.742474
     44 O7          3.2400   -0.9980   -2.0980 o         1 MOL     -0.676224
     45 O8          1.6320   -1.0380   -3.5840 o         1 MOL     -0.676224
     46 H19         2.8980   -3.5060   -1.1040 hn        1 MOL     -0.027141
     47 H20         4.2250   -4.6570   -3.5980 h1        1 MOL      0.073183
     48 H21         2.4880   -3.2010   -4.4920 hc        1 MOL      0.053921
     49 H22         3.9280   -2.2730   -4.5810 hc        1 MOL      0.053921
     50 N4          5.5310   -2.5750   -1.5180 n         1 MOL      0.158941
     51 C17         6.8550   -2.0450   -1.1590 c3        1 MOL     -0.157847
     52 C18         7.2000   -0.6040   -1.6760 c         1 MOL      0.360668
     53 O9          8.3780   -0.2790   -1.8680 o         1 MOL     -0.594359
     54 H23         4.7940   -2.5380   -0.8300 hn        1 MOL     -0.090578
     55 H24         7.5980   -2.7860   -1.4800 h1        1 MOL      0.081458
     56 H25         7.0030   -1.9870   -0.0750 h1        1 MOL      0.081458
     57 N5          6.2150    0.1970   -2.0160 n         1 MOL      0.116704
     58 C19         6.3670    1.4740   -2.6780 c3        1 MOL     -0.341110
     59 C20         6.8240    2.6890   -1.8030 c         1 MOL      0.562959
     60 O10         7.1090    3.7690   -2.3690 o         1 MOL     -0.578463
     61 C21         5.0430    1.8940   -3.3190 c3        1 MOL      0.064102
     62 C22         3.8570    1.8880   -2.4280 c         1 MOL      0.621278
     63 O11         3.9710    1.6160   -1.2110 o         1 MOL     -0.679638
     64 O12         2.7790    2.3090   -2.9470 o         1 MOL     -0.679638
     65 H26         5.2570   -0.1210   -2.0010 hn        1 MOL      0.081983
     66 H27         7.0590    1.2560   -3.4950 h1        1 MOL      0.142683
     67 H28         4.8890    1.0900   -4.0500 hc        1 MOL      0.013209
     68 H29         5.1010    2.8320   -3.8560 hc        1 MOL      0.013209
     69 N6          6.9400    2.5620   -0.5250 n         1 MOL     -0.376015
     70 C23         7.3010    3.6740    0.4010 c3        1 MOL     -0.059078
     71 C24         6.1300    4.1890    1.2430 c         1 MOL      0.391726
     72 O13         6.2890    5.0550    2.1780 o         1 MOL     -0.594102
     73 H30         6.4980    1.7550   -0.1300 hn        1 MOL      0.242395
     74 H31         7.7750    4.5140   -0.1210 h1        1 MOL      0.097108
     75 H32         8.0390    3.2920    1.1130 h1        1 MOL      0.097108
     76 N7          4.9390    3.7150    1.0420 n         1 MOL     -0.246636
     77 C25         3.6840    4.3160    1.5370 c3        1 MOL     -0.049188
     78 C26         2.5440    3.3330    1.8300 c         1 MOL      0.609733
     79 O14         2.4670    2.2870    1.2130 o         1 MOL     -0.597982
     80 C27         3.1580    5.3130    0.4540 c3        1 MOL      0.038706
     81 C28         4.2340    6.0400   -0.2960 c3        1 MOL     -0.306082
     82 C29         3.5220    7.2420   -1.0470 c         1 MOL      0.691858
     83 N8          2.8900    7.0920   -2.1940 n         1 MOL     -0.826750
     84 O15         3.5530    8.4090   -0.7380 o         1 MOL     -0.595928
     85 H33         4.8080    2.9620    0.3890 hn        1 MOL      0.275748
     86 H34         3.9410    4.8390    2.4600 h1        1 MOL      0.089856
     87 H35         2.5840    6.0610    1.0070 hc        1 MOL      0.037082
     88 H36         2.5210    4.7780   -0.2360 hc        1 MOL      0.037082
     89 H37         4.7810    5.4200   -1.0120 hc        1 MOL      0.125302
     90 H38         4.8860    6.4850    0.4530 hc        1 MOL      0.125302
     91 H39         2.9840    6.3010   -2.8190 hn        1 MOL      0.366841
     92 H40         2.4980    7.9090   -2.6360 hn        1 MOL      0.366841
     93 N9          1.5930    3.6860    2.7510 n         1 MOL     -0.618710
     94 C30         0.3310    2.9320    3.0320 c3        1 MOL      0.058354
     95 C31        -0.9210    3.5350    2.3390 c         1 MOL      0.596424
     96 O16        -1.1050    4.7620    2.2770 o         1 MOL     -0.587526
     97 C32         0.0060    2.8280    4.5610 c3        1 MOL      0.247480
     98 C33        -1.2550    1.9800    4.9210 c3        1 MOL     -0.220581
     99 C34         1.1980    2.3480    5.4450 c3        1 MOL     -0.220581
    100 H41         1.6010    4.6300    3.1010 hn        1 MOL      0.296331
    101 H42         0.5250    1.9170    2.7160 h1        1 MOL      0.218001
    102 H43        -0.3240    3.8380    4.8300 hc        1 MOL     -0.048507
    103 H44        -1.2940    1.1460    4.2150 hc        1 MOL      0.038209
    104 H45        -1.1820    1.5570    5.9280 hc        1 MOL      0.038209
    105 H46        -2.1730    2.5700    4.8420 hc        1 MOL      0.038209
    106 H47         1.4330    1.3190    5.1930 hc        1 MOL      0.038209
    107 H48         2.0520    3.0110    5.3480 hc        1 MOL      0.038209
    108 H49         0.8700    2.4500    6.4790 hc        1 MOL      0.038209
    109 N10        -1.7990    2.6740    1.8090 n         1 MOL     -0.457580
    110 C35        -3.0160    3.0420    1.0370 c3        1 MOL      0.371885
    111 C36        -4.1760    2.1820    1.4620 c         1 MOL      0.309335
    112 O17        -4.0370    1.1100    2.0440 o         1 MOL     -0.419178
    113 C37        -2.6130    2.9220   -0.4440 c3        1 MOL     -0.572890
    114 C38        -3.7040    2.8240   -1.4800 c         1 MOL      0.840876
    115 N11        -4.3250    3.8410   -1.9830 n         1 MOL     -0.810532
    116 O18        -4.0690    1.7360   -1.8850 o         1 MOL     -0.559504
    117 H50        -1.4800    1.7650    1.5320 hn        1 MOL      0.250241
    118 H51        -3.2430    4.0830    1.2470 h1        1 MOL     -0.002695
    119 H52        -2.0350    2.0080   -0.5620 hc        1 MOL      0.182697
    120 H53        -1.8910    3.7200   -0.6120 hc        1 MOL      0.182697
    121 H54        -4.1610    4.7770   -1.6610 hn        1 MOL      0.359286
    122 H55        -4.9980    3.6760   -2.7190 hn        1 MOL      0.359286
    123 N12        -5.4380    2.5360    0.9920 n         1 MOL     -0.385134
    124 C39        -6.7040    1.9750    1.3890 c3        1 MOL      0.269593
    125 C40        -6.9550    0.5770    0.9500 c         1 MOL      0.308484
    126 O19        -7.6270   -0.1260    1.7130 o         1 MOL     -0.594748
    127 C41        -7.8640    2.8660    0.9030 c3        1 MOL     -0.231980
    128 C42        -7.9800    3.0940   -0.5970 ca        1 MOL     -0.013208
    129 C43        -8.7130    2.1340   -1.4000 ca        1 MOL     -0.096794
    130 C44        -7.4480    4.2500   -1.2190 ca        1 MOL     -0.096794
    131 C45        -8.8050    2.2890   -2.7560 ca        1 MOL     -0.384245
    132 C46        -7.5570    4.3840   -2.6110 ca        1 MOL     -0.384245
    133 C47        -8.2680    3.3960   -3.3660 ca        1 MOL      0.501576
    134 O20        -8.4550    3.6860   -4.6370 oh        1 MOL     -0.531956
    135 H56        -5.4900    3.2070    0.2360 hn        1 MOL      0.136717
    136 H57        -6.8290    2.0340    2.4690 h1        1 MOL      0.026532
    137 H58        -7.7160    3.8470    1.3560 hc        1 MOL      0.075645
    138 H59        -8.7920    2.4610    1.2930 hc        1 MOL      0.075645
    139 H60        -9.0010    1.2030   -0.9470 ha        1 MOL      0.120792
    140 H61        -7.0140    5.0640   -0.6630 ha        1 MOL      0.120792
    141 H62        -9.2730    1.5450   -3.3930 ha        1 MOL      0.170928
    142 H63        -7.0960    5.2740   -3.0230 ha        1 MOL      0.170928
    143 H64        -9.1270    3.0630   -4.9260 ho        1 MOL      0.392838
    144 N13        -6.4050    0.1740   -0.1680 n         1 MOL      0.223637
    145 C48        -6.4690   -1.1720   -0.6840 c3        1 MOL     -0.093798
    146 C49        -5.7030   -2.2050   -0.0010 c         1 MOL      0.248098
    147 O21        -6.1840   -3.3550    0.0690 o         1 MOL     -0.491560
    148 C50        -6.0780   -1.0060   -2.1430 c3        1 MOL      0.093891
    149 C51        -6.5040   -2.2960   -2.9300 c3        1 MOL     -0.313783
    150 C52        -6.1760   -2.2040   -4.4140 c         1 MOL      0.663905
    151 O22        -4.9990   -2.5150   -4.7900 o         1 MOL     -0.720727
    152 O23        -7.0440   -1.7540   -5.2430 o         1 MOL     -0.720727
    153 H65        -5.7580    0.7440   -0.6890 hn        1 MOL      0.005205
    154 H66        -7.4950   -1.5360   -0.5750 h1        1 MOL      0.090016
    155 H67        -5.0380   -0.7620   -2.3420 hc        1 MOL      0.036644
    156 H68        -6.7610   -0.2860   -2.5850 hc        1 MOL      0.036644
    157 H69        -7.5360   -2.4400   -2.6010 hc        1 MOL      0.047845
    158 H70        -5.9550   -3.1500   -2.5410 hc        1 MOL      0.047845
    159 N14        -4.5250   -1.9080    0.5400 n         1 MOL     -0.140899
    160 C53        -3.7080   -2.8750    1.3190 c3        1 MOL     -0.032773
    161 C54        -4.0950   -3.0290    2.7630 c         1 MOL      0.419851
    162 O24        -4.0100   -4.1140    3.2960 o         1 MOL     -0.535096
    163 C55        -2.2390   -2.2700    1.3560 c3        1 MOL      0.032781
    164 C56        -1.7190   -1.6530   -0.0020 c3        1 MOL     -0.154162
    165 C57        -0.2710   -1.1030    0.1440 c         1 MOL      0.870620
    166 O25        -0.0650    0.0760    0.2980 o         1 MOL     -0.839445
    167 O26         0.6970   -1.8740   -0.0070 o         1 MOL     -0.839445
    168 H71        -4.2640   -0.9330    0.5660 hn        1 MOL      0.172323
    169 H72        -3.7340   -3.7760    0.7050 h1        1 MOL      0.109390
    170 H73        -1.5360   -3.0180    1.7100 hc        1 MOL     -0.015110
    171 H74        -2.2530   -1.4850    2.1150 hc        1 MOL     -0.015110
    172 H75        -2.3710   -0.8430   -0.3310 hc        1 MOL      0.062289
    173 H76        -1.8480   -2.3850   -0.7990 hc        1 MOL      0.062289
    174 N15        -4.7020   -2.0000    3.3420 n         1 MOL     -0.024223
    175 C58        -5.1390   -2.0410    4.7000 c3        1 MOL     -0.317084
    176 H77        -5.5410   -1.0670    4.9810 h1        1 MOL      0.104725
    177 H78        -5.9130   -2.7990    4.8110 h1        1 MOL      0.104725
    178 H79        -4.2950   -2.2850    5.3470 h1        1 MOL      0.104725
    179 H80        -4.6830   -1.1360    2.8260 hn        1 MOL      0.118602
    180 Ca1         2.5570   -0.0220    0.1350 Ca        1 MOL      1.712117
    181 O27         2.0730   -0.2920    2.8630 oh        1 MOL     -0.845597
    182 H81         1.4130   -0.8520    3.2810 ho        1 MOL      0.398832
    183 H82         2.9070   -0.6420    3.1490 ho        1 MOL      0.398832
    184 O28         4.8570    0.5920    1.6150 oh        1 MOL     -0.845597
    185 H83         5.8010    0.4240    1.6540 ho        1 MOL      0.398832
    186 H84         4.5820    0.6260    2.5330 ho        1 MOL      0.398832
@<TRIPOS>BOND
     1    1    2 1   
     2    1    4 1   
     3    1    5 1   
     4    1    6 1   
     5    2    3 2   
     6    2    7 1   
     7    7    8 1   
     8    7   15 1   
     9    8    9 1   
    10    8   11 1   
    11    8   16 1   
    12    9   10 2   
    13    9   19 1   
    14   11   12 1   
    15   11   17 1   
    16   11   18 1   
    17   12   13 1   
    18   12   14 1   
    19   19   20 1   
    20   19   27 1   
    21   20   21 1   
    22   20   23 1   
    23   20   28 1   
    24   21   22 2   
    25   21   38 1   
    26   23   24 1   
    27   23   25 1   
    28   23   29 1   
    29   24   26 1   
    30   24   30 1   
    31   24   31 1   
    32   25   32 1   
    33   25   33 1   
    34   25   34 1   
    35   26   35 1   
    36   26   36 1   
    37   26   37 1   
    38   38   39 1   
    39   38   46 1   
    40   39   40 1   
    41   39   42 1   
    42   39   47 1   
    43   40   41 2   
    44   40   50 1   
    45   42   43 1   
    46   42   48 1   
    47   42   49 1   
    48   43   44 1   
    49   43   45 1   
    50   50   51 1   
    51   50   54 1   
    52   51   52 1   
    53   51   55 1   
    54   51   56 1   
    55   52   53 2   
    56   52   57 1   
    57   57   58 1   
    58   57   65 1   
    59   58   59 1   
    60   58   61 1   
    61   58   66 1   
    62   59   60 2   
    63   59   69 1   
    64   61   62 1   
    65   61   67 1   
    66   61   68 1   
    67   62   63 1   
    68   62   64 1   
    69   69   70 1   
    70   69   73 1   
    71   70   71 1   
    72   70   74 1   
    73   70   75 1   
    74   71   72 2   
    75   71   76 1   
    76   76   77 1   
    77   76   85 1   
    78   77   78 1   
    79   77   80 1   
    80   77   86 1   
    81   78   79 2   
    82   78   93 1   
    83   80   81 1   
    84   80   87 1   
    85   80   88 1   
    86   81   82 1   
    87   81   89 1   
    88   81   90 1   
    89   82   83 1   
    90   82   84 2   
    91   83   91 1   
    92   83   92 1   
    93   93   94 1   
    94   93  100 1   
    95   94   95 1   
    96   94   97 1   
    97   94  101 1   
    98   95   96 2   
    99   95  109 1   
   100   97   98 1   
   101   97   99 1   
   102   97  102 1   
   103   98  103 1   
   104   98  104 1   
   105   98  105 1   
   106   99  106 1   
   107   99  107 1   
   108   99  108 1   
   109  109  110 1   
   110  109  117 1   
   111  110  111 1   
   112  110  113 1   
   113  110  118 1   
   114  111  112 2   
   115  111  123 1   
   116  113  114 1   
   117  113  119 1   
   118  113  120 1   
   119  114  115 1   
   120  114  116 2   
   121  115  121 1   
   122  115  122 1   
   123  123  124 1   
   124  123  135 1   
   125  124  125 1   
   126  124  127 1   
   127  124  136 1   
   128  125  126 2   
   129  125  144 1   
   130  127  128 1   
   131  127  137 1   
   132  127  138 1   
   133  128  129 ar  
   134  128  130 ar  
   135  129  131 ar  
   136  129  139 1   
   137  130  132 ar  
   138  130  140 1   
   139  131  133 ar  
   140  131  141 1   
   141  132  133 ar  
   142  132  142 1   
   143  133  134 1   
   144  134  143 1   
   145  144  145 1   
   146  144  153 1   
   147  145  146 1   
   148  145  148 1   
   149  145  154 1   
   150  146  147 2   
   151  146  159 1   
   152  148  149 1   
   153  148  155 1   
   154  148  156 1   
   155  149  150 1   
   156  149  157 1   
   157  149  158 1   
   158  150  151 1   
   159  150  152 1   
   160  159  160 1   
   161  159  168 1   
   162  160  161 1   
   163  160  163 1   
   164  160  169 1   
   165  161  162 2   
   166  161  174 1   
   167  163  164 1   
   168  163  170 1   
   169  163  171 1   
   170  164  165 1   
   171  164  172 1   
   172  164  173 1   
   173  165  166 1   
   174  165  167 1   
   175  174  175 1   
   176  174  179 1   
   177  175  176 1   
   178  175  177 1   
   179  175  178 1   
   180  181  182 1   
   181  181  183 1   
   182  184  185 1   
   183  184  186 1   
@<TRIPOS>SUBSTRUCTURE
     1 MOL         1 TEMP              0 ****  ****    0 ROOT
