@<TRIPOS>MOLECULE
MOL
  175   173     1     0     0
SMALL
resp


@<TRIPOS>ATOM
      1 C1          0.8130    3.2820    5.9360 c3        1 MOL     -0.327957
      2 C2          0.2910    3.4710    4.5330 c         1 MOL      0.738574
      3 O1          1.0530    3.9970    3.7410 o         1 MOL     -0.565915
      4 H1          0.6640    4.1990    6.5050 hc        1 MOL      0.075850
      5 H2          0.2760    2.4640    6.4170 hc        1 MOL      0.075850
      6 H3          1.8770    3.0460    5.9000 hc        1 MOL      0.075850
      7 N1         -0.9490    3.1480    4.1940 n         1 MOL     -0.641428
      8 C3         -1.5560    3.1450    2.8390 c3        1 MOL      0.300671
      9 C4         -1.5980    4.4420    2.0610 c         1 MOL      0.361848
     10 O2         -1.9930    5.4570    2.6800 o         1 MOL     -0.548348
     11 C5         -3.0360    2.7120    2.9750 c3        1 MOL     -0.378628
     12 C6         -3.6700    2.5900    1.5840 c         1 MOL      0.689623
     13 O3         -4.6320    3.3550    1.4000 o         1 MOL     -0.609713
     14 O4         -3.2190    1.8010    0.7140 o         1 MOL     -0.609713
     15 H4         -1.5630    2.8240    4.9300 hn        1 MOL      0.308331
     16 H5         -0.8560    2.5570    2.2550 h1        1 MOL      0.020818
     17 H6         -3.5670    3.4420    3.5800 hc        1 MOL      0.082353
     18 H7         -3.0150    1.7070    3.4110 hc        1 MOL      0.082353
     19 N2         -1.4070    4.4570    0.7310 n         1 MOL     -0.158585
     20 C7         -1.5970    5.5060   -0.2320 c3        1 MOL      0.336098
     21 C8         -2.5770    5.2080   -1.4030 c         1 MOL      0.441662
     22 O5         -2.5370    5.9930   -2.3630 o         1 MOL     -0.556888
     23 C9         -0.1560    5.9070   -0.7050 c3        1 MOL     -0.301127
     24 H8         -1.0070    3.5870    0.3930 hn        1 MOL      0.119303
     25 H9         -2.0630    6.3450    0.2810 h1        1 MOL     -0.019788
     26 H10         0.4160    6.1470    0.1840 hc        1 MOL      0.066190
     27 H11         0.2320    5.0940   -1.3150 hc        1 MOL      0.066190
     28 H12        -0.2450    6.7500   -1.3900 hc        1 MOL      0.066190
     29 N3         -3.4130    4.1150   -1.4040 n         1 MOL     -0.305083
     30 C10        -4.2090    3.7970   -2.5940 c3        1 MOL      0.147345
     31 C11        -5.5690    3.1590   -2.2110 c         1 MOL      0.364572
     32 O6         -6.4530    3.2860   -3.0520 o         1 MOL     -0.579601
     33 C12        -3.4490    2.8830   -3.5760 c3        1 MOL     -0.237969
     34 C13        -2.8640    1.6420   -2.9290 c         1 MOL      0.733725
     35 O7         -1.6270    1.4820   -2.9460 o         1 MOL     -0.682846
     36 O8         -3.6320    0.7430   -2.4740 o         1 MOL     -0.682846
     37 H13        -3.4370    3.5250   -0.5880 hn        1 MOL      0.052197
     38 H14        -4.5540    4.7150   -3.0580 h1        1 MOL      0.057877
     39 H15        -2.6480    3.5370   -3.9210 hc        1 MOL      0.057050
     40 H16        -4.0830    2.6090   -4.4330 hc        1 MOL      0.057050
     41 N4         -5.7190    2.5640   -1.0770 n         1 MOL     -0.025284
     42 C14        -7.0370    2.0760   -0.6050 c3        1 MOL     -0.180278
     43 C15        -7.3490    0.6110   -0.9140 c         1 MOL      0.486799
     44 O9         -8.4810    0.1670   -0.8430 o         1 MOL     -0.610383
     45 H17        -4.9810    2.7170   -0.3950 hn        1 MOL      0.101425
     46 H18        -7.8230    2.6480   -1.0880 h1        1 MOL      0.092888
     47 H19        -7.1140    2.2690    0.4650 h1        1 MOL      0.092888
     48 N5         -6.3310   -0.1310   -1.3180 n         1 MOL     -0.008182
     49 C16        -6.5580   -1.5070   -1.9200 c3        1 MOL     -0.268683
     50 C17        -6.6060   -2.6850   -0.8470 c         1 MOL      0.568088
     51 O10        -6.6820   -3.8400   -1.2070 o         1 MOL     -0.514089
     52 C18        -5.5240   -1.6580   -3.0240 c3        1 MOL     -0.015957
     53 C19        -4.1160   -1.9910   -2.6250 c         1 MOL      0.435591
     54 N6         -3.2140   -2.2840   -3.5550 n         1 MOL     -0.609486
     55 O11        -3.7470   -2.0940   -1.4530 o         1 MOL     -0.403408
     56 H20        -5.4070    0.2800   -1.3010 hn        1 MOL      0.020377
     57 H21        -7.5080   -1.5180   -2.4470 h1        1 MOL      0.156611
     58 H22        -5.5690   -0.7690   -3.6600 hc        1 MOL      0.050653
     59 H23        -5.8040   -2.4830   -3.6790 hc        1 MOL      0.050653
     60 H24        -3.4820   -2.0410   -4.4960 hn        1 MOL      0.319259
     61 H25        -2.2790   -2.3820   -3.1950 hn        1 MOL      0.319259
     62 N7         -6.6010   -2.3460    0.4640 n         1 MOL     -0.354087
     63 C20        -6.6300   -3.2020    1.6610 c3        1 MOL     -0.102008
     64 C21        -5.3530   -4.0420    1.9160 c         1 MOL      0.466111
     65 O12        -5.3980   -5.0710    2.5980 o         1 MOL     -0.574043
     66 H26        -6.3180   -1.4020    0.6790 hn        1 MOL      0.253716
     67 H27        -7.5170   -3.8420    1.6240 h1        1 MOL      0.091405
     68 H28        -6.7330   -2.5570    2.5350 h1        1 MOL      0.091405
     69 N8         -4.2230   -3.7010    1.2980 n         1 MOL     -0.042388
     70 C22        -2.9780   -4.4340    1.2610 c3        1 MOL     -0.279865
     71 C23        -1.7240   -3.4570    1.1410 c         1 MOL      0.481531
     72 O13        -1.8050   -2.3500    0.5810 o         1 MOL     -0.603829
     73 C24        -2.7870   -5.4360    0.0780 c3        1 MOL      0.653979
     74 C25        -3.9010   -6.4350    0.2140 c3        1 MOL     -0.456870
     75 O14        -2.8930   -4.7730   -1.1790 oh        1 MOL     -0.714548
     76 H29        -4.3380   -2.8510    0.7510 hn        1 MOL      0.018136
     77 H30        -2.8360   -4.9830    2.1870 h1        1 MOL      0.089889
     78 H31        -1.8740   -6.0170    0.1280 h1        1 MOL     -0.039936
     79 H32        -3.3730   -3.9460   -1.1850 ho        1 MOL      0.414523
     80 H33        -3.9990   -6.9480   -0.7420 hc        1 MOL      0.100473
     81 H34        -3.6220   -7.1550    0.9900 hc        1 MOL      0.100473
     82 H35        -4.8760   -5.9830    0.3710 hc        1 MOL      0.100473
     83 N9         -0.6350   -3.9910    1.6210 n         1 MOL     -0.293133
     84 C26         0.6370   -3.2360    1.6620 c3        1 MOL     -0.038307
     85 C27         1.3710   -3.4580    0.3690 c         1 MOL      0.475067
     86 O15         1.7760   -4.5660   -0.0200 o         1 MOL     -0.572531
     87 C28         1.5900   -3.3690    2.8720 c3        1 MOL      0.075000
     88 C29         0.7510   -2.9420    4.1320 c3        1 MOL      0.252246
     89 C30         2.9970   -2.7360    2.8900 c3        1 MOL     -0.192764
     90 C31         1.3840   -3.3840    5.4690 c3        1 MOL     -0.258295
     91 H36        -0.5230   -4.9250    1.9840 hn        1 MOL      0.241408
     92 H37         0.3720   -2.1920    1.6970 h1        1 MOL      0.070150
     93 H38         1.8520   -4.4080    3.0740 hc        1 MOL      0.002390
     94 H39        -0.2070   -3.4670    4.1090 hc        1 MOL     -0.076351
     95 H40         0.5090   -1.8740    4.1400 hc        1 MOL     -0.076351
     96 H41         2.9990   -1.6480    2.7980 hc        1 MOL      0.048279
     97 H42         3.4690   -3.0080    3.8240 hc        1 MOL      0.048279
     98 H43         3.4650   -3.2440    2.0450 hc        1 MOL      0.048279
     99 H44         0.6540   -3.3680    6.2820 hc        1 MOL      0.050863
    100 H45         1.9170   -4.3300    5.4280 hc        1 MOL      0.050863
    101 H46         2.1490   -2.7020    5.8220 hc        1 MOL      0.050863
    102 N10         1.5070   -2.3290   -0.3370 n         1 MOL     -0.007173
    103 C32         2.3720   -2.1410   -1.4060 c3        1 MOL      0.001180
    104 C33         3.7910   -1.6560   -0.9770 c         1 MOL      0.481746
    105 O16         3.9490   -1.1870    0.1080 o         1 MOL     -0.320407
    106 C34         1.7330   -1.1610   -2.4520 c3        1 MOL     -0.280457
    107 C35         0.3180   -1.4390   -2.9950 c         1 MOL      0.730321
    108 O17         0.3260   -1.7620   -4.1870 o         1 MOL     -0.661503
    109 O18        -0.7310   -1.2450   -2.3050 o         1 MOL     -0.661503
    110 H47         0.9690   -1.5130   -0.0990 hn        1 MOL     -0.123061
    111 H48         2.5370   -3.1310   -1.8350 h1        1 MOL      0.050060
    112 H49         2.4740   -1.0070   -3.2360 hc        1 MOL      0.088448
    113 H50         1.6770   -0.2050   -1.9230 hc        1 MOL      0.088448
    114 N11         4.8300   -1.8080   -1.8450 n         1 MOL     -0.658825
    115 C36         6.1860   -1.5500   -1.4930 c3        1 MOL      0.313610
    116 C37         6.5250   -0.1020   -0.9800 c         1 MOL      0.440589
    117 O19         7.0960   -0.0840    0.1160 o         1 MOL     -0.532343
    118 C38         7.1000   -1.9110   -2.7440 c3        1 MOL     -0.248837
    119 C39         8.5630   -1.7390   -2.5260 ca        1 MOL      0.222576
    120 C40         9.3030   -0.6110   -2.9840 ca        1 MOL     -0.301349
    121 C41         9.2450   -2.6910   -1.7310 ca        1 MOL     -0.301349
    122 C42        10.6420   -0.4120   -2.5780 ca        1 MOL      0.012936
    123 C43        10.5690   -2.4580   -1.3300 ca        1 MOL      0.012936
    124 C44        11.2910   -1.3380   -1.7990 ca        1 MOL     -0.225439
    125 H51         4.6700   -2.1120   -2.7920 hn        1 MOL      0.331640
    126 H52         6.4560   -2.1480   -0.6270 h1        1 MOL      0.037178
    127 H53         6.7990   -1.1750   -3.4890 hc        1 MOL      0.074339
    128 H54         6.9660   -2.9270   -3.1070 hc        1 MOL      0.074339
    129 H55         8.7660    0.1250   -3.5580 ha        1 MOL      0.144916
    130 H56         8.7810   -3.6180   -1.4200 ha        1 MOL      0.144916
    131 H57        11.2700    0.4020   -2.9090 ha        1 MOL      0.083837
    132 H58        11.0170   -3.2010   -0.6860 ha        1 MOL      0.083837
    133 H59        12.3140   -1.0490   -1.6360 ha        1 MOL      0.123723
    134 N12         6.0560    0.9880   -1.5750 n         1 MOL     -0.055078
    135 C45         6.4150    2.3200   -1.1050 c3        1 MOL     -0.121176
    136 C46         5.7660    2.6080    0.2670 c         1 MOL      0.457571
    137 O20         6.1680    3.5710    0.8720 o         1 MOL     -0.512036
    138 C47         5.9630    3.3150   -2.2210 c3        1 MOL     -0.115476
    139 C48         4.8170    2.6340   -2.9050 c3        1 MOL      0.049969
    140 C49         5.2630    1.1620   -2.8310 c3        1 MOL     -0.012808
    141 H60         7.5070    2.4110   -1.0310 h1        1 MOL      0.084458
    142 H61         5.7530    4.2850   -1.7710 hc        1 MOL      0.061191
    143 H62         6.7000    3.3870   -3.0170 hc        1 MOL      0.061191
    144 H63         3.8870    2.7440   -2.3590 hc        1 MOL      0.030184
    145 H64         4.7310    3.0950   -3.8940 hc        1 MOL      0.030184
    146 H65         4.3680    0.5430   -2.9310 h1        1 MOL      0.004909
    147 H66         5.8990    0.9810   -3.6970 h1        1 MOL      0.004909
    148 N13         4.7490    1.8270    0.7040 n         1 MOL     -0.185737
    149 C50         4.1570    1.8470    2.0340 c3        1 MOL     -0.151894
    150 C51         4.8650    0.9250    3.0680 c         1 MOL      0.450575
    151 O21         4.8190    1.1410    4.2830 o         1 MOL     -0.577774
    152 C52         2.7050    1.3470    1.8680 c3        1 MOL      0.075325
    153 C53         1.9520    1.8780    0.6380 c3        1 MOL      0.083602
    154 C54         0.5570    1.2720    0.4100 c         1 MOL      0.531821
    155 O22        -0.2950    1.8340   -0.2700 o         1 MOL     -0.639998
    156 O23         0.3010    0.1460    0.8970 o         1 MOL     -0.639998
    157 H67         4.3230    1.1920    0.0430 hn        1 MOL      0.185076
    158 H68         4.1480    2.8730    2.4110 h1        1 MOL      0.114038
    159 H69         2.1120    1.4740    2.7720 hc        1 MOL      0.004938
    160 H70         2.6910    0.2600    1.7750 hc        1 MOL      0.004938
    161 H71         2.4850    1.8140   -0.3020 hc        1 MOL     -0.012825
    162 H72         1.7890    2.9510    0.7920 hc        1 MOL     -0.012825
    163 N14         5.5400   -0.0340    2.5570 n         1 MOL     -0.032534
    164 C55         6.3580   -1.0100    3.3260 c3        1 MOL     -0.084281
    165 H73         6.3370   -0.7460    4.3830 h1        1 MOL      0.051171
    166 H74         5.9490   -2.0110    3.1940 h1        1 MOL      0.051171
    167 H75         7.3860   -0.9870    2.9660 h1        1 MOL      0.051171
    168 H76         5.4360   -0.1550    1.5600 hn        1 MOL      0.017127
    169 Ca1        -2.0450   -0.0210   -0.5010 Ca        1 MOL      1.713517
    170 O24        -1.7060   -0.1830    2.5650 oh        1 MOL     -0.786380
    171 H77        -1.5720   -0.0610    3.5070 ho        1 MOL      0.389616
    172 H78        -0.8290   -0.3680    2.2290 ho        1 MOL      0.389616
    173 O25        -4.1870   -0.5670    1.3080 oh        1 MOL     -0.786380
    174 H79        -4.8970   -0.2480    1.8660 ho        1 MOL      0.389616
    175 H80        -3.4020   -0.4830    1.8490 ho        1 MOL      0.389616
@<TRIPOS>BOND
     1    1    2 1   
     2    1    4 1   
     3    1    5 1   
     4    1    6 1   
     5    2    3 2   
     6    2    7 1   
     7    7    8 1   
     8    7   15 1   
     9    8    9 1   
    10    8   11 1   
    11    8   16 1   
    12    9   10 2   
    13    9   19 1   
    14   11   12 1   
    15   11   17 1   
    16   11   18 1   
    17   12   13 1   
    18   12   14 1   
    19   19   20 1   
    20   19   24 1   
    21   20   21 1   
    22   20   23 1   
    23   20   25 1   
    24   21   22 2   
    25   21   29 1   
    26   23   26 1   
    27   23   27 1   
    28   23   28 1   
    29   29   30 1   
    30   29   37 1   
    31   30   31 1   
    32   30   33 1   
    33   30   38 1   
    34   31   32 2   
    35   31   41 1   
    36   33   34 1   
    37   33   39 1   
    38   33   40 1   
    39   34   35 1   
    40   34   36 1   
    41   41   42 1   
    42   41   45 1   
    43   42   43 1   
    44   42   46 1   
    45   42   47 1   
    46   43   44 2   
    47   43   48 1   
    48   48   49 1   
    49   48   56 1   
    50   49   50 1   
    51   49   52 1   
    52   49   57 1   
    53   50   51 2   
    54   50   62 1   
    55   52   53 1   
    56   52   58 1   
    57   52   59 1   
    58   53   54 1   
    59   53   55 2   
    60   54   60 1   
    61   54   61 1   
    62   62   63 1   
    63   62   66 1   
    64   63   64 1   
    65   63   67 1   
    66   63   68 1   
    67   64   65 2   
    68   64   69 1   
    69   69   70 1   
    70   69   76 1   
    71   70   71 1   
    72   70   73 1   
    73   70   77 1   
    74   71   72 2   
    75   71   83 1   
    76   73   74 1   
    77   73   75 1   
    78   73   78 1   
    79   74   80 1   
    80   74   81 1   
    81   74   82 1   
    82   75   79 1   
    83   83   84 1   
    84   83   91 1   
    85   84   85 1   
    86   84   87 1   
    87   84   92 1   
    88   85   86 2   
    89   85  102 1   
    90   87   88 1   
    91   87   89 1   
    92   87   93 1   
    93   88   90 1   
    94   88   94 1   
    95   88   95 1   
    96   89   96 1   
    97   89   97 1   
    98   89   98 1   
    99   90   99 1   
   100   90  100 1   
   101   90  101 1   
   102  102  103 1   
   103  102  110 1   
   104  103  104 1   
   105  103  106 1   
   106  103  111 1   
   107  104  105 2   
   108  104  114 1   
   109  106  107 1   
   110  106  112 1   
   111  106  113 1   
   112  107  108 1   
   113  107  109 1   
   114  114  115 1   
   115  114  125 1   
   116  115  116 1   
   117  115  118 1   
   118  115  126 1   
   119  116  117 2   
   120  116  134 1   
   121  118  119 1   
   122  118  127 1   
   123  118  128 1   
   124  119  120 ar  
   125  119  121 ar  
   126  120  122 ar  
   127  120  129 1   
   128  121  123 ar  
   129  121  130 1   
   130  122  124 ar  
   131  122  131 1   
   132  123  124 ar  
   133  123  132 1   
   134  124  133 1   
   135  134  135 1   
   136  134  140 1   
   137  135  136 1   
   138  135  138 1   
   139  135  141 1   
   140  136  137 2   
   141  136  148 1   
   142  138  139 1   
   143  138  142 1   
   144  138  143 1   
   145  139  140 1   
   146  139  144 1   
   147  139  145 1   
   148  140  146 1   
   149  140  147 1   
   150  148  149 1   
   151  148  157 1   
   152  149  150 1   
   153  149  152 1   
   154  149  158 1   
   155  150  151 2   
   156  150  163 1   
   157  152  153 1   
   158  152  159 1   
   159  152  160 1   
   160  153  154 1   
   161  153  161 1   
   162  153  162 1   
   163  154  155 1   
   164  154  156 1   
   165  163  164 1   
   166  163  168 1   
   167  164  165 1   
   168  164  166 1   
   169  164  167 1   
   170  170  171 1   
   171  170  172 1   
   172  173  174 1   
   173  173  175 1   
@<TRIPOS>SUBSTRUCTURE
     1 MOL         1 TEMP              0 ****  ****    0 ROOT
