@<TRIPOS>MOLECULE
MOL
  186   183     1     0     0
SMALL
resp


@<TRIPOS>ATOM
      1 C1          0.2840   -1.8790    6.5800 c3        1 MOL     -0.336148
      2 C2          0.4380   -2.0140    5.0500 c         1 MOL      0.786293
      3 O1         -0.4810   -2.5370    4.4170 o         1 MOL     -0.582814
      4 H1          1.2500   -1.6340    7.0220 hc        1 MOL      0.070532
      5 H2         -0.4300   -1.0880    6.8060 hc        1 MOL      0.070532
      6 H3         -0.0750   -2.8220    6.9940 hc        1 MOL      0.070532
      7 N1          1.5700   -1.5660    4.5320 n         1 MOL     -0.635229
      8 C3          1.9370   -1.6950    3.1140 c3        1 MOL      0.188786
      9 C4          2.4460   -3.0990    2.6720 c         1 MOL      0.398670
     10 O2          3.1390   -3.7680    3.4710 o         1 MOL     -0.563532
     11 C5          3.0430   -0.6350    2.8450 c3        1 MOL     -0.003470
     12 C6          3.8680   -0.8780    1.5690 c         1 MOL      0.464066
     13 O3          5.0340   -1.1990    1.7370 o         1 MOL     -0.600981
     14 O4          3.3620   -0.9800    0.4690 o         1 MOL     -0.600981
     15 H4          2.1470   -1.0200    5.1510 hn        1 MOL      0.325572
     16 H5          1.0520   -1.3960    2.5480 h1        1 MOL     -0.057764
     17 H6          3.7810   -0.5980    3.6550 hc        1 MOL     -0.003928
     18 H7          2.6440    0.3800    2.8230 hc        1 MOL     -0.003928
     19 N2          2.2010   -3.5700    1.4810 n         1 MOL     -0.033594
     20 C7          2.6410   -4.8820    1.0130 c3        1 MOL     -0.084644
     21 C8          3.8050   -4.8900    0.0820 c         1 MOL      0.656208
     22 O5          4.6490   -5.7820    0.1630 o         1 MOL     -0.624045
     23 C9          1.3850   -5.6130    0.4710 c3        1 MOL      0.089688
     24 C10         0.3100   -5.7510    1.5190 c3        1 MOL     -0.071445
     25 C11         1.8840   -6.9390   -0.0920 c3        1 MOL     -0.133714
     26 C12        -1.1300   -6.1410    1.1860 c3        1 MOL      0.023126
     27 H8          1.7470   -3.0120    0.7770 hn        1 MOL      0.095218
     28 H9          3.0540   -5.3460    1.9140 h1        1 MOL      0.053491
     29 H10         0.9650   -5.0810   -0.3950 hc        1 MOL      0.031472
     30 H11         0.1100   -4.7820    1.9880 hc        1 MOL      0.026193
     31 H12         0.5770   -6.4530    2.3070 hc        1 MOL      0.026193
     32 H13         2.4020   -6.6870   -1.0160 hc        1 MOL      0.018622
     33 H14         2.4130   -7.6200    0.5740 hc        1 MOL      0.018622
     34 H15         1.0420   -7.5570   -0.3830 hc        1 MOL      0.018622
     35 H16        -1.8240   -6.1500    2.0190 hc        1 MOL     -0.011745
     36 H17        -1.5450   -5.5220    0.3950 hc        1 MOL     -0.011745
     37 H18        -1.1510   -7.1820    0.8380 hc        1 MOL     -0.011745
     38 N3          3.8930   -3.9110   -0.8490 n         1 MOL     -0.442973
     39 C13         4.8630   -3.8250   -1.9440 c3        1 MOL      0.126186
     40 C14         6.1540   -3.0180   -1.7190 c         1 MOL      0.379115
     41 O6          7.0220   -2.8520   -2.6340 o         1 MOL     -0.563530
     42 C15         4.1920   -3.5380   -3.2510 c3        1 MOL     -0.158903
     43 C16         3.4700   -2.2230   -3.3410 c         1 MOL      0.758450
     44 O7          2.8880   -1.8600   -4.3940 o         1 MOL     -0.717521
     45 O8          3.6610   -1.3740   -2.4730 o         1 MOL     -0.717521
     46 H19         3.1920   -3.1910   -0.7460 hn        1 MOL      0.263718
     47 H20         5.2200   -4.8510   -2.0330 h1        1 MOL      0.069234
     48 H21         3.6160   -4.4020   -3.5870 hc        1 MOL      0.034983
     49 H22         4.9520   -3.6370   -4.0320 hc        1 MOL      0.034983
     50 N4          6.3670   -2.4210   -0.5470 n         1 MOL     -0.157760
     51 C17         7.7290   -1.9930   -0.1650 c3        1 MOL     -0.270682
     52 C18         8.0490   -0.6250   -0.5770 c         1 MOL      0.607991
     53 O9          9.1930   -0.1750   -0.6480 o         1 MOL     -0.649737
     54 H23         5.5780   -2.1150    0.0070 hn        1 MOL      0.185399
     55 H24         8.4150   -2.5780   -0.7760 h1        1 MOL      0.116864
     56 H25         7.8850   -2.1130    0.9020 h1        1 MOL      0.116864
     57 N5          7.0550    0.1810   -0.9580 n         1 MOL     -0.169734
     58 C19         7.1750    1.5100   -1.5390 c3        1 MOL     -0.016755
     59 C20         7.0090    2.6020   -0.5190 c         1 MOL      0.401727
     60 O10         7.0120    3.7910   -0.8480 o         1 MOL     -0.521501
     61 C21         6.2010    1.6380   -2.7220 c3        1 MOL     -0.430834
     62 C22         4.7130    1.7180   -2.2790 c         1 MOL      0.872514
     63 O11         3.7630    1.6310   -3.0860 o         1 MOL     -0.763536
     64 O12         4.4770    1.7740   -1.0530 o         1 MOL     -0.763536
     65 H26         6.1260   -0.0930   -0.6920 hn        1 MOL      0.207730
     66 H27         8.1760    1.6220   -1.9580 h1        1 MOL      0.125286
     67 H28         6.3280    0.8420   -3.4600 hc        1 MOL      0.121257
     68 H29         6.4590    2.6290   -3.1080 hc        1 MOL      0.121257
     69 N6          6.9150    2.2230    0.7530 n         1 MOL     -0.262176
     70 C23         6.7200    3.0910    1.8860 c3        1 MOL     -0.185506
     71 C24         5.4190    3.8390    2.0160 c         1 MOL      0.480544
     72 O13         5.3950    4.9480    2.5870 o         1 MOL     -0.588132
     73 H30         6.9240    1.2220    0.9090 hn        1 MOL      0.219011
     74 H31         7.4830    3.8650    1.7880 h1        1 MOL      0.107600
     75 H32         6.9020    2.5840    2.8270 h1        1 MOL      0.107600
     76 N7          4.3340    3.3880    1.4020 n         1 MOL     -0.316699
     77 C25         3.0530    4.0130    1.3430 c3        1 MOL      0.100196
     78 C26         1.9100    2.9600    1.2520 c         1 MOL      0.481713
     79 O14         2.1320    1.8630    0.7220 o         1 MOL     -0.645036
     80 C27         2.9870    5.0030    0.2030 c3        1 MOL      0.055999
     81 C28         3.6790    6.3360    0.4660 c3        1 MOL     -0.400463
     82 C29         3.2150    7.4720   -0.4630 c         1 MOL      0.698341
     83 N8          3.8440    7.5930   -1.5840 n         1 MOL     -0.785424
     84 O15         2.2880    8.2230   -0.1180 o         1 MOL     -0.598050
     85 H33         4.4270    2.5820    0.7990 hn        1 MOL      0.333211
     86 H34         2.8000    4.4810    2.2960 h1        1 MOL      0.032218
     87 H35         1.9150    5.1260   -0.0100 hc        1 MOL      0.030479
     88 H36         3.4420    4.5620   -0.6770 hc        1 MOL      0.030479
     89 H37         4.7390    6.2130    0.2750 hc        1 MOL      0.127086
     90 H38         3.5590    6.6350    1.4960 hc        1 MOL      0.127086
     91 H39         4.6510    7.0040   -1.7250 hn        1 MOL      0.356277
     92 H40         3.6150    8.2280   -2.3340 hn        1 MOL      0.356277
     93 N9          0.7360    3.3180    1.8480 n         1 MOL     -0.379653
     94 C30        -0.3960    2.3940    1.9910 c3        1 MOL     -0.125298
     95 C31        -1.5210    2.7430    1.0070 c         1 MOL      0.353808
     96 O16        -2.2020    3.7960    1.1980 o         1 MOL     -0.554044
     97 C32        -0.8310    2.2590    3.4430 c3        1 MOL      0.535132
     98 C33        -1.5520    0.9580    3.4740 c3        1 MOL     -0.556467
     99 C34         0.2840    2.2640    4.5390 c3        1 MOL     -0.556467
    100 H41         0.7040    4.2300    2.2710 hn        1 MOL      0.265638
    101 H42         0.0240    1.4640    1.6120 h1        1 MOL      0.216629
    102 H43        -1.4920    3.0730    3.7680 hc        1 MOL     -0.067230
    103 H44        -0.9630    0.1120    3.1210 hc        1 MOL      0.117935
    104 H45        -1.7410    0.7050    4.5250 hc        1 MOL      0.117935
    105 H46        -2.4160    1.0930    2.8200 hc        1 MOL      0.117935
    106 H47        -0.1210    1.8250    5.4500 hc        1 MOL      0.117935
    107 H48         1.1130    1.6290    4.2380 hc        1 MOL      0.117935
    108 H49         0.6750    3.2820    4.6070 hc        1 MOL      0.117935
    109 N10        -1.7330    1.9570   -0.0500 n         1 MOL     -0.028381
    110 C35        -2.8010    2.0930   -1.0170 c3        1 MOL     -0.057368
    111 C36        -4.1130    1.7210   -0.2710 c         1 MOL      0.285480
    112 O17        -4.0430    1.0410    0.7710 o         1 MOL     -0.303999
    113 C37        -2.6320    1.1860   -2.2880 c3        1 MOL     -0.265433
    114 C38        -3.5830    1.7260   -3.3690 c         1 MOL      0.731394
    115 N11        -3.0950    2.5060   -4.2980 n         1 MOL     -0.811664
    116 O18        -4.7830    1.4710   -3.3260 o         1 MOL     -0.589822
    117 H50        -1.1700    1.1410   -0.2610 hn        1 MOL      0.191482
    118 H51        -3.0200    3.1090   -1.3400 h1        1 MOL      0.042045
    119 H52        -2.7790    0.1060   -2.1990 hc        1 MOL      0.098311
    120 H53        -1.6140    1.3060   -2.6630 hc        1 MOL      0.098311
    121 H54        -2.1300    2.8000   -4.2350 hn        1 MOL      0.378657
    122 H55        -3.7440    2.7840   -5.0090 hn        1 MOL      0.378657
    123 N12        -5.2270    2.2550   -0.6700 n         1 MOL     -0.340209
    124 C39        -6.5110    1.8470   -0.1900 c3        1 MOL      0.088693
    125 C40        -6.7010    0.3010   -0.2800 c         1 MOL      0.669681
    126 O19        -7.1740   -0.2660    0.6630 o         1 MOL     -0.511987
    127 C41        -7.6590    2.6720   -0.8210 c3        1 MOL     -0.283490
    128 C42        -8.9700    2.2300   -0.2970 ca        1 MOL      0.107104
    129 C43        -9.4720    2.6680    1.0150 ca        1 MOL     -0.222550
    130 C44        -9.8870    1.4570   -1.0950 ca        1 MOL     -0.222550
    131 C45       -10.7860    2.2610    1.4220 ca        1 MOL     -0.216058
    132 C46       -11.0950    0.9650   -0.6370 ca        1 MOL     -0.216058
    133 C47       -11.5750    1.4110    0.6120 ca        1 MOL      0.295286
    134 O20       -12.7600    0.9930    1.0910 oh        1 MOL     -0.500001
    135 H56        -5.2470    2.9290   -1.4250 hn        1 MOL      0.275840
    136 H57        -6.6160    2.1060    0.8680 h1        1 MOL      0.078812
    137 H58        -7.6940    2.7180   -1.9080 hc        1 MOL      0.099377
    138 H59        -7.4490    3.6850   -0.4830 hc        1 MOL      0.099377
    139 H60        -8.9360    3.4090    1.5920 ha        1 MOL      0.152868
    140 H61        -9.6950    1.0510   -2.0800 ha        1 MOL      0.152868
    141 H62       -11.1910    2.5160    2.3970 ha        1 MOL      0.139303
    142 H63       -11.6730    0.2650   -1.2140 ha        1 MOL      0.139303
    143 H64       -13.1820    0.4330    0.4280 ho        1 MOL      0.366187
    144 N13        -6.3260   -0.3300   -1.3790 n         1 MOL     -0.489391
    145 C48        -6.2490   -1.7810   -1.3880 c3        1 MOL     -0.018529
    146 C49        -5.3740   -2.4790   -0.3250 c         1 MOL      0.316040
    147 O21        -5.6620   -3.6410   -0.0380 o         1 MOL     -0.532536
    148 C50        -6.0400   -2.4140   -2.7210 c3        1 MOL      0.222089
    149 C51        -4.6680   -2.0100   -3.3810 c3        1 MOL     -0.151600
    150 C52        -4.6730   -2.4630   -4.8680 c         1 MOL      0.647577
    151 O22        -5.3710   -1.7210   -5.6030 o         1 MOL     -0.723128
    152 O23        -4.1140   -3.5190   -5.2770 o         1 MOL     -0.723128
    153 H65        -6.0480    0.2820   -2.1340 hn        1 MOL      0.289826
    154 H66        -7.2260   -2.1820   -1.1120 h1        1 MOL      0.035244
    155 H67        -6.8130   -2.0460   -3.3860 hc        1 MOL     -0.027098
    156 H68        -6.2460   -3.4880   -2.7030 hc        1 MOL     -0.027098
    157 H69        -3.9310   -2.6070   -2.8330 hc        1 MOL     -0.013254
    158 H70        -4.3850   -0.9660   -3.2230 hc        1 MOL     -0.013254
    159 N14        -4.3540   -1.7910    0.1110 n         1 MOL     -0.021908
    160 C53        -3.4600   -2.2010    1.2740 c3        1 MOL     -0.027343
    161 C54        -4.0690   -1.8380    2.6630 c         1 MOL      0.378526
    162 O24        -3.9830   -2.6720    3.6250 o         1 MOL     -0.548381
    163 C55        -2.0740   -1.5420    1.0460 c3        1 MOL      0.317609
    164 C56        -1.4470   -2.1470   -0.2390 c3        1 MOL     -0.183385
    165 C57        -0.1900   -1.3990   -0.5670 c         1 MOL      0.747113
    166 O25         0.8360   -2.0880   -0.9120 o         1 MOL     -0.780763
    167 O26        -0.0920   -0.2070   -0.3820 o         1 MOL     -0.780763
    168 H71        -4.3780   -0.7940   -0.0610 hn        1 MOL      0.182860
    169 H72        -3.2540   -3.2670    1.2330 h1        1 MOL      0.071534
    170 H73        -1.4700   -1.7420    1.9370 hc        1 MOL     -0.050916
    171 H74        -2.0840   -0.4520    0.9710 hc        1 MOL     -0.050916
    172 H75        -2.1260   -2.0330   -1.0900 hc        1 MOL      0.023260
    173 H76        -1.2520   -3.1960   -0.0390 hc        1 MOL      0.023260
    174 N15        -4.8940   -0.8000    2.7130 n         1 MOL      0.009494
    175 C58        -5.8050   -0.4270    3.8480 c3        1 MOL     -0.331255
    176 H77        -5.6550    0.6220    4.1050 h1        1 MOL      0.113322
    177 H78        -6.8410   -0.5830    3.5490 h1        1 MOL      0.113322
    178 H79        -5.5790   -1.0490    4.7150 h1        1 MOL      0.113322
    179 H80        -5.0860   -0.3160    1.8470 hn        1 MOL     -0.047898
    180 Ca1         2.2370    0.3350   -1.3920 Ca        1 MOL      1.800286
    181 O27         0.8680    0.0130   -3.6610 oh        1 MOL     -0.853409
    182 H81         1.3570   -0.7190   -4.0580 ho        1 MOL      0.395727
    183 H82         0.0360    0.0340   -4.1430 ho        1 MOL      0.395727
    184 O28         1.1070    2.8120   -2.2300 oh        1 MOL     -0.853409
    185 H83         0.3240    2.9370   -2.7630 ho        1 MOL      0.395727
    186 H84         1.8280    3.0960   -2.7990 ho        1 MOL      0.395727
@<TRIPOS>BOND
     1    1    2 1   
     2    1    4 1   
     3    1    5 1   
     4    1    6 1   
     5    2    3 2   
     6    2    7 1   
     7    7    8 1   
     8    7   15 1   
     9    8    9 1   
    10    8   11 1   
    11    8   16 1   
    12    9   10 2   
    13    9   19 1   
    14   11   12 1   
    15   11   17 1   
    16   11   18 1   
    17   12   13 1   
    18   12   14 1   
    19   19   20 1   
    20   19   27 1   
    21   20   21 1   
    22   20   23 1   
    23   20   28 1   
    24   21   22 2   
    25   21   38 1   
    26   23   24 1   
    27   23   25 1   
    28   23   29 1   
    29   24   26 1   
    30   24   30 1   
    31   24   31 1   
    32   25   32 1   
    33   25   33 1   
    34   25   34 1   
    35   26   35 1   
    36   26   36 1   
    37   26   37 1   
    38   38   39 1   
    39   38   46 1   
    40   39   40 1   
    41   39   42 1   
    42   39   47 1   
    43   40   41 2   
    44   40   50 1   
    45   42   43 1   
    46   42   48 1   
    47   42   49 1   
    48   43   44 1   
    49   43   45 1   
    50   50   51 1   
    51   50   54 1   
    52   51   52 1   
    53   51   55 1   
    54   51   56 1   
    55   52   53 2   
    56   52   57 1   
    57   57   58 1   
    58   57   65 1   
    59   58   59 1   
    60   58   61 1   
    61   58   66 1   
    62   59   60 2   
    63   59   69 1   
    64   61   62 1   
    65   61   67 1   
    66   61   68 1   
    67   62   63 1   
    68   62   64 1   
    69   69   70 1   
    70   69   73 1   
    71   70   71 1   
    72   70   74 1   
    73   70   75 1   
    74   71   72 2   
    75   71   76 1   
    76   76   77 1   
    77   76   85 1   
    78   77   78 1   
    79   77   80 1   
    80   77   86 1   
    81   78   79 2   
    82   78   93 1   
    83   80   81 1   
    84   80   87 1   
    85   80   88 1   
    86   81   82 1   
    87   81   89 1   
    88   81   90 1   
    89   82   83 1   
    90   82   84 2   
    91   83   91 1   
    92   83   92 1   
    93   93   94 1   
    94   93  100 1   
    95   94   95 1   
    96   94   97 1   
    97   94  101 1   
    98   95   96 2   
    99   95  109 1   
   100   97   98 1   
   101   97   99 1   
   102   97  102 1   
   103   98  103 1   
   104   98  104 1   
   105   98  105 1   
   106   99  106 1   
   107   99  107 1   
   108   99  108 1   
   109  109  110 1   
   110  109  117 1   
   111  110  111 1   
   112  110  113 1   
   113  110  118 1   
   114  111  112 2   
   115  111  123 1   
   116  113  114 1   
   117  113  119 1   
   118  113  120 1   
   119  114  115 1   
   120  114  116 2   
   121  115  121 1   
   122  115  122 1   
   123  123  124 1   
   124  123  135 1   
   125  124  125 1   
   126  124  127 1   
   127  124  136 1   
   128  125  126 2   
   129  125  144 1   
   130  127  128 1   
   131  127  137 1   
   132  127  138 1   
   133  128  129 ar  
   134  128  130 ar  
   135  129  131 ar  
   136  129  139 1   
   137  130  132 ar  
   138  130  140 1   
   139  131  133 ar  
   140  131  141 1   
   141  132  133 ar  
   142  132  142 1   
   143  133  134 1   
   144  134  143 1   
   145  144  145 1   
   146  144  153 1   
   147  145  146 1   
   148  145  148 1   
   149  145  154 1   
   150  146  147 2   
   151  146  159 1   
   152  148  149 1   
   153  148  155 1   
   154  148  156 1   
   155  149  150 1   
   156  149  157 1   
   157  149  158 1   
   158  150  151 1   
   159  150  152 1   
   160  159  160 1   
   161  159  168 1   
   162  160  161 1   
   163  160  163 1   
   164  160  169 1   
   165  161  162 2   
   166  161  174 1   
   167  163  164 1   
   168  163  170 1   
   169  163  171 1   
   170  164  165 1   
   171  164  172 1   
   172  164  173 1   
   173  165  166 1   
   174  165  167 1   
   175  174  175 1   
   176  174  179 1   
   177  175  176 1   
   178  175  177 1   
   179  175  178 1   
   180  181  182 1   
   181  181  183 1   
   182  184  185 1   
   183  184  186 1   
@<TRIPOS>SUBSTRUCTURE
     1 MOL         1 TEMP              0 ****  ****    0 ROOT
