@<TRIPOS>MOLECULE
MOL
  175   173     1     0     0
SMALL
resp


@<TRIPOS>ATOM
      1 C1         -0.4950   -2.8660    5.7400 c3        1 MOL     -0.480107
      2 C2          0.1580   -2.9240    4.3750 c         1 MOL      0.704816
      3 O1         -0.5930   -2.9940    3.3650 o         1 MOL     -0.515977
      4 H1          0.2240   -2.4920    6.4700 hc        1 MOL      0.124280
      5 H2         -1.3560   -2.1980    5.7040 hc        1 MOL      0.124280
      6 H3         -0.8210   -3.8650    6.0310 hc        1 MOL      0.124280
      7 N1          1.5040   -3.0610    4.2400 n         1 MOL     -0.614975
      8 C3          2.1870   -2.9970    2.9290 c3        1 MOL      0.115940
      9 C4          2.3110   -4.3620    2.2990 c         1 MOL      0.649709
     10 O2          2.5100   -5.3870    2.9300 o         1 MOL     -0.576438
     11 C5          3.4610   -2.2920    3.2260 c3        1 MOL     -0.224078
     12 C6          4.3460   -2.0830    1.9930 c         1 MOL      0.586832
     13 O3          3.7280   -1.9430    0.8600 o         1 MOL     -0.619439
     14 O4          5.5990   -2.1910    2.1090 o         1 MOL     -0.619439
     15 H4          2.1200   -2.9370    5.0400 hn        1 MOL      0.318531
     16 H5          1.6200   -2.3180    2.2940 h1        1 MOL      0.008186
     17 H6          4.0450   -2.8270    3.9760 hc        1 MOL      0.044814
     18 H7          3.3620   -1.3270    3.7400 hc        1 MOL      0.044814
     19 N2          2.0990   -4.3230    0.9480 n         1 MOL     -0.429953
     20 C7          2.2240   -5.4580    0.0730 c3        1 MOL      0.225791
     21 C8          3.3050   -5.4400   -1.0120 c         1 MOL      0.345099
     22 O5          3.5530   -6.4260   -1.7330 o         1 MOL     -0.541181
     23 C9          0.8500   -5.7070   -0.5720 c3        1 MOL     -0.184961
     24 H8          2.0310   -3.4020    0.5330 hn        1 MOL      0.257794
     25 H9          2.4120   -6.3540    0.6590 h1        1 MOL      0.018273
     26 H10         1.0370   -6.3420   -1.4350 hc        1 MOL      0.045593
     27 H11         0.1120   -6.1090    0.1210 hc        1 MOL      0.045593
     28 H12         0.3470   -4.8030   -0.9220 hc        1 MOL      0.045593
     29 N3          3.9430   -4.2660   -1.2630 n         1 MOL     -0.136105
     30 C10         4.8240   -3.9260   -2.3620 c3        1 MOL     -0.081946
     31 C11         6.0840   -3.0550   -2.1420 c         1 MOL      0.434982
     32 O6          6.8230   -2.8580   -3.0940 o         1 MOL     -0.510049
     33 C12         3.9820   -3.1890   -3.3680 c3        1 MOL      0.055601
     34 C13         3.1750   -1.9830   -3.0010 c         1 MOL      0.657355
     35 O7          2.0730   -1.8340   -3.5370 o         1 MOL     -0.667153
     36 O8          3.5980   -1.1660   -2.1240 o         1 MOL     -0.667153
     37 H13         3.6970   -3.5210   -0.6290 hn        1 MOL      0.062465
     38 H14         5.2380   -4.8350   -2.8020 h1        1 MOL      0.083689
     39 H15         3.2410   -3.8290   -3.8410 hc        1 MOL     -0.014465
     40 H16         4.6110   -2.8390   -4.1930 hc        1 MOL     -0.014465
     41 N4          6.2220   -2.5360   -0.8870 n         1 MOL     -0.272664
     42 C14         7.3750   -1.7420   -0.5090 c3        1 MOL     -0.139772
     43 C15         7.3200   -0.3280   -1.0360 c         1 MOL      0.454721
     44 O9          8.3790    0.2610   -1.2630 o         1 MOL     -0.616621
     45 H17         5.5550   -2.7650   -0.1670 hn        1 MOL      0.216088
     46 H18         8.2690   -2.2410   -0.8970 h1        1 MOL      0.100372
     47 H19         7.4130   -1.6970    0.5780 h1        1 MOL      0.100372
     48 N5          6.1780    0.2120   -1.4570 n         1 MOL     -0.039175
     49 C16         6.0250    1.5300   -2.1070 c3        1 MOL     -0.034145
     50 C17         6.0300    2.8750   -1.2120 c         1 MOL      0.370258
     51 O10         5.7450    3.9810   -1.7260 o         1 MOL     -0.499317
     52 C18         5.0020    1.5090   -3.1670 c3        1 MOL     -0.134510
     53 C19         3.6120    1.8670   -2.6560 c         1 MOL      0.397177
     54 N6          2.7210    2.1030   -3.5450 n         1 MOL     -0.513139
     55 O11         3.3450    2.0130   -1.4750 o         1 MOL     -0.519429
     56 H20         5.3950   -0.4070   -1.3770 hn        1 MOL      0.076437
     57 H21         6.9610    1.6030   -2.6730 h1        1 MOL      0.091883
     58 H22         5.0410    0.5190   -3.6150 hc        1 MOL      0.068266
     59 H23         5.3560    2.2420   -3.9060 hc        1 MOL      0.068266
     60 H24         2.9490    2.0320   -4.5300 hn        1 MOL      0.308998
     61 H25         1.7770    2.1560   -3.1970 hn        1 MOL      0.308998
     62 N7          6.1960    2.6860    0.0800 n         1 MOL     -0.144023
     63 C20         6.3570    3.7840    1.0500 c3        1 MOL     -0.265095
     64 C21         5.0800    4.6220    1.3490 c         1 MOL      0.559549
     65 O12         5.1390    5.7010    1.9630 o         1 MOL     -0.577917
     66 H26         6.3470    1.7150    0.3180 hn        1 MOL      0.198424
     67 H27         7.1340    4.4590    0.6780 h1        1 MOL      0.123522
     68 H28         6.6780    3.4550    2.0460 h1        1 MOL      0.123522
     69 N8          3.9460    4.1240    0.8810 n         1 MOL     -0.332268
     70 C22         2.6070    4.7380    0.8090 c3        1 MOL     -0.100716
     71 C23         1.5060    3.6360    1.0300 c         1 MOL      0.525559
     72 O13         1.5480    2.5040    0.5760 o         1 MOL     -0.501549
     73 C24         2.4160    5.5760   -0.4650 c3        1 MOL      0.599571
     74 C25         3.1390    6.8760   -0.3870 c3        1 MOL     -0.550280
     75 O14         2.8590    4.9840   -1.6080 oh        1 MOL     -0.643272
     76 H29         4.0690    3.2700    0.3550 hn        1 MOL      0.181417
     77 H30         2.5030    5.3520    1.6990 h1        1 MOL      0.057786
     78 H31         1.3560    5.7990   -0.4450 h1        1 MOL     -0.025897
     79 H32         3.8240    4.9730   -1.6420 ho        1 MOL      0.409138
     80 H33         3.3960    7.1580    0.6270 hc        1 MOL      0.120539
     81 H34         4.0810    6.8550   -0.9380 hc        1 MOL      0.120539
     82 H35         2.5550    7.6300   -0.9050 hc        1 MOL      0.120539
     83 N9          0.3950    4.1070    1.5800 n         1 MOL     -0.395509
     84 C26        -0.8070    3.2250    1.7380 c3        1 MOL      0.004912
     85 C27        -1.6560    3.3040    0.4620 c         1 MOL      0.613281
     86 O15        -1.9480    4.4410    0.0740 o         1 MOL     -0.618052
     87 C28        -1.6230    3.5390    3.0370 c3        1 MOL      0.192902
     88 C29        -0.7850    3.2370    4.2580 c3        1 MOL      0.116628
     89 C30        -2.8480    2.6140    3.0240 c3        1 MOL     -0.250844
     90 C31        -1.1880    4.0660    5.4870 c3        1 MOL     -0.110191
     91 H36         0.3970    5.0600    1.9220 hn        1 MOL      0.242748
     92 H37        -0.4230    2.2190    1.8830 h1        1 MOL      0.019134
     93 H38        -1.9930    4.5600    2.9940 hc        1 MOL     -0.026181
     94 H39         0.2440    3.4420    3.9720 hc        1 MOL     -0.036061
     95 H40        -0.8320    2.1660    4.4540 hc        1 MOL     -0.036061
     96 H41        -3.6080    2.9160    2.3050 hc        1 MOL      0.048373
     97 H42        -2.6050    1.5570    2.8430 hc        1 MOL      0.048373
     98 H43        -3.3650    2.5200    3.9830 hc        1 MOL      0.048373
     99 H44        -0.9720    5.1100    5.2490 hc        1 MOL      0.011210
    100 H45        -2.2550    3.9720    5.6670 hc        1 MOL      0.011210
    101 H46        -0.5560    3.8740    6.3550 hc        1 MOL      0.011210
    102 N10        -2.0280    2.2070   -0.1340 n         1 MOL     -0.216831
    103 C32        -2.8700    2.0360   -1.3760 c3        1 MOL     -0.052149
    104 C33        -4.3050    1.5500   -1.0290 c         1 MOL      0.456020
    105 O16        -4.5820    1.0300    0.0660 o         1 MOL     -0.366886
    106 C34        -2.2130    1.0490   -2.3650 c3        1 MOL     -0.224556
    107 C35        -0.6810    1.2620   -2.5720 c         1 MOL      0.762747
    108 O17         0.1580    0.6260   -1.8950 o         1 MOL     -0.689750
    109 O18        -0.3330    1.8670   -3.6600 o         1 MOL     -0.689750
    110 H47        -1.7090    1.3170    0.2130 hn        1 MOL      0.026591
    111 H48        -2.9590    2.9280   -1.9890 h1        1 MOL      0.097291
    112 H49        -2.7840    1.1940   -3.2880 hc        1 MOL      0.081946
    113 H50        -2.4060    0.0440   -1.9990 hc        1 MOL      0.081946
    114 N11        -5.3140    1.5530   -1.9270 n         1 MOL     -0.655052
    115 C36        -6.6750    1.1990   -1.5510 c3        1 MOL      0.420993
    116 C37        -6.7670   -0.2610   -0.9780 c         1 MOL      0.221522
    117 O19        -7.4490   -0.4510    0.0340 o         1 MOL     -0.473041
    118 C38        -7.5280    1.4060   -2.7360 c3        1 MOL     -0.229814
    119 C39        -9.0300    1.2420   -2.3350 ca        1 MOL      0.055541
    120 C40        -9.6650    2.2070   -1.5420 ca        1 MOL     -0.141330
    121 C41        -9.8020    0.1490   -2.7550 ca        1 MOL     -0.141330
    122 C42       -10.9700    2.0220   -1.1100 ca        1 MOL     -0.136568
    123 C43       -11.1180    0.0090   -2.3450 ca        1 MOL     -0.136568
    124 C44       -11.6940    0.9240   -1.4510 ca        1 MOL     -0.033719
    125 H51        -5.1270    2.1360   -2.7220 hn        1 MOL      0.339680
    126 H52        -6.9640    1.8710   -0.7500 h1        1 MOL      0.027900
    127 H53        -7.1810    0.7490   -3.5340 hc        1 MOL      0.069193
    128 H54        -7.3290    2.3880   -3.1560 hc        1 MOL      0.069193
    129 H55        -9.2270    3.1680   -1.3510 ha        1 MOL      0.113070
    130 H56        -9.3260   -0.5610   -3.4070 ha        1 MOL      0.113070
    131 H57       -11.4660    2.7470   -0.4780 ha        1 MOL      0.106240
    132 H58       -11.6990   -0.8290   -2.7360 ha        1 MOL      0.106240
    133 H59       -12.7560    0.8100   -1.2810 ha        1 MOL      0.074708
    134 N12        -6.1270   -1.3020   -1.5390 n         1 MOL      0.052306
    135 C45        -6.3110   -2.6860   -1.0150 c3        1 MOL      0.042606
    136 C46        -5.6980   -2.8520    0.3570 c         1 MOL      0.231219
    137 O20        -6.0660   -3.7430    1.1440 o         1 MOL     -0.505285
    138 C47        -5.7370   -3.6540   -2.0890 c3        1 MOL     -0.075041
    139 C48        -5.2370   -2.7540   -3.2000 c3        1 MOL     -0.039098
    140 C49        -5.3860   -1.2990   -2.7500 c3        1 MOL     -0.017881
    141 H60        -7.3890   -2.8290   -0.9070 h1        1 MOL      0.059096
    142 H61        -4.8860   -4.1920   -1.6680 hc        1 MOL      0.044117
    143 H62        -6.4980   -4.3390   -2.4540 hc        1 MOL      0.044117
    144 H63        -4.1990   -3.0210   -3.3910 hc        1 MOL      0.036186
    145 H64        -5.8000   -2.9470   -4.1090 hc        1 MOL      0.036186
    146 H65        -4.4110   -0.8180   -2.7520 h1        1 MOL      0.013052
    147 H66        -6.0890   -0.8970   -3.4870 h1        1 MOL      0.013052
    148 N13        -4.6780   -2.0370    0.6700 n         1 MOL     -0.039140
    149 C50        -3.9180   -1.9910    1.9060 c3        1 MOL     -0.095131
    150 C51        -4.6210   -1.1280    2.9390 c         1 MOL      0.437115
    151 O21        -4.5290   -1.4500    4.1450 o         1 MOL     -0.563572
    152 C52        -2.5840   -1.3550    1.5630 c3        1 MOL     -0.028023
    153 C53        -1.7250   -2.1250    0.5690 c3        1 MOL     -0.130508
    154 C54        -0.3780   -1.4720    0.3730 c         1 MOL      0.552457
    155 O22         0.4320   -1.9410   -0.4340 o         1 MOL     -0.623429
    156 O23        -0.0350   -0.4760    0.9890 o         1 MOL     -0.623429
    157 H67        -4.4870   -1.2840    0.0230 hn        1 MOL      0.152925
    158 H68        -3.7150   -3.0030    2.2530 h1        1 MOL      0.123955
    159 H69        -2.0420   -1.3290    2.5110 hc        1 MOL      0.056874
    160 H70        -2.7950   -0.3510    1.2080 hc        1 MOL      0.056874
    161 H71        -2.2660   -2.3060   -0.3590 hc        1 MOL      0.058535
    162 H72        -1.5410   -3.0860    1.0600 hc        1 MOL      0.058535
    163 N14        -5.4670   -0.1810    2.4940 n         1 MOL     -0.091504
    164 C55        -6.4080    0.5250    3.4120 c3        1 MOL     -0.120520
    165 H73        -7.3730    0.6470    2.9190 h1        1 MOL      0.055626
    166 H74        -6.5370   -0.0600    4.3220 h1        1 MOL      0.055626
    167 H75        -6.0040    1.5060    3.6640 h1        1 MOL      0.055626
    168 H76        -5.4900    0.1590    1.5360 hn        1 MOL      0.105926
    169 Ca1         2.1760   -0.0340   -0.3460 Ca        1 MOL      1.676355
    170 O24         1.8860    0.4840    2.6780 oh        1 MOL     -0.769403
    171 H77         1.0170    0.2240    2.3730 ho        1 MOL      0.380606
    172 H78         1.8790    0.3010    3.6160 ho        1 MOL      0.380606
    173 O25         4.1230    0.9660    1.2710 oh        1 MOL     -0.769403
    174 H79         3.6280    1.1180    2.0670 ho        1 MOL      0.380606
    175 H80         5.0230    0.8290    1.5670 ho        1 MOL      0.380606
@<TRIPOS>BOND
     1    1    2 1   
     2    1    4 1   
     3    1    5 1   
     4    1    6 1   
     5    2    3 2   
     6    2    7 1   
     7    7    8 1   
     8    7   15 1   
     9    8    9 1   
    10    8   11 1   
    11    8   16 1   
    12    9   10 2   
    13    9   19 1   
    14   11   12 1   
    15   11   17 1   
    16   11   18 1   
    17   12   13 1   
    18   12   14 1   
    19   19   20 1   
    20   19   24 1   
    21   20   21 1   
    22   20   23 1   
    23   20   25 1   
    24   21   22 2   
    25   21   29 1   
    26   23   26 1   
    27   23   27 1   
    28   23   28 1   
    29   29   30 1   
    30   29   37 1   
    31   30   31 1   
    32   30   33 1   
    33   30   38 1   
    34   31   32 2   
    35   31   41 1   
    36   33   34 1   
    37   33   39 1   
    38   33   40 1   
    39   34   35 1   
    40   34   36 1   
    41   41   42 1   
    42   41   45 1   
    43   42   43 1   
    44   42   46 1   
    45   42   47 1   
    46   43   44 2   
    47   43   48 1   
    48   48   49 1   
    49   48   56 1   
    50   49   50 1   
    51   49   52 1   
    52   49   57 1   
    53   50   51 2   
    54   50   62 1   
    55   52   53 1   
    56   52   58 1   
    57   52   59 1   
    58   53   54 1   
    59   53   55 2   
    60   54   60 1   
    61   54   61 1   
    62   62   63 1   
    63   62   66 1   
    64   63   64 1   
    65   63   67 1   
    66   63   68 1   
    67   64   65 2   
    68   64   69 1   
    69   69   70 1   
    70   69   76 1   
    71   70   71 1   
    72   70   73 1   
    73   70   77 1   
    74   71   72 2   
    75   71   83 1   
    76   73   74 1   
    77   73   75 1   
    78   73   78 1   
    79   74   80 1   
    80   74   81 1   
    81   74   82 1   
    82   75   79 1   
    83   83   84 1   
    84   83   91 1   
    85   84   85 1   
    86   84   87 1   
    87   84   92 1   
    88   85   86 2   
    89   85  102 1   
    90   87   88 1   
    91   87   89 1   
    92   87   93 1   
    93   88   90 1   
    94   88   94 1   
    95   88   95 1   
    96   89   96 1   
    97   89   97 1   
    98   89   98 1   
    99   90   99 1   
   100   90  100 1   
   101   90  101 1   
   102  102  103 1   
   103  102  110 1   
   104  103  104 1   
   105  103  106 1   
   106  103  111 1   
   107  104  105 2   
   108  104  114 1   
   109  106  107 1   
   110  106  112 1   
   111  106  113 1   
   112  107  108 1   
   113  107  109 1   
   114  114  115 1   
   115  114  125 1   
   116  115  116 1   
   117  115  118 1   
   118  115  126 1   
   119  116  117 2   
   120  116  134 1   
   121  118  119 1   
   122  118  127 1   
   123  118  128 1   
   124  119  120 ar  
   125  119  121 ar  
   126  120  122 ar  
   127  120  129 1   
   128  121  123 ar  
   129  121  130 1   
   130  122  124 ar  
   131  122  131 1   
   132  123  124 ar  
   133  123  132 1   
   134  124  133 1   
   135  134  135 1   
   136  134  140 1   
   137  135  136 1   
   138  135  138 1   
   139  135  141 1   
   140  136  137 2   
   141  136  148 1   
   142  138  139 1   
   143  138  142 1   
   144  138  143 1   
   145  139  140 1   
   146  139  144 1   
   147  139  145 1   
   148  140  146 1   
   149  140  147 1   
   150  148  149 1   
   151  148  157 1   
   152  149  150 1   
   153  149  152 1   
   154  149  158 1   
   155  150  151 2   
   156  150  163 1   
   157  152  153 1   
   158  152  159 1   
   159  152  160 1   
   160  153  154 1   
   161  153  161 1   
   162  153  162 1   
   163  154  155 1   
   164  154  156 1   
   165  163  164 1   
   166  163  168 1   
   167  164  165 1   
   168  164  166 1   
   169  164  167 1   
   170  170  171 1   
   171  170  172 1   
   172  173  174 1   
   173  173  175 1   
@<TRIPOS>SUBSTRUCTURE
     1 MOL         1 TEMP              0 ****  ****    0 ROOT
