@<TRIPOS>MOLECULE
MOL
  172   171     1     0     0
SMALL
resp


@<TRIPOS>ATOM
      1 C1          0.0750   -4.0080    5.6700 c3        1 MOL     -0.360687
      2 C2          0.4790   -3.6790    4.2060 c         1 MOL      0.741247
      3 O1         -0.2020   -4.1950    3.3090 o         1 MOL     -0.597467
      4 H1          0.7770   -4.7320    6.0850 hc        1 MOL      0.089815
      5 H2          0.0960   -3.0970    6.2670 hc        1 MOL      0.089815
      6 H3         -0.9300   -4.4280    5.6840 hc        1 MOL      0.089815
      7 N1          1.4800   -2.8750    3.9090 n         1 MOL     -0.733033
      8 C3          1.9250   -2.4480    2.5900 c3        1 MOL      0.248780
      9 C4          2.4130   -3.6000    1.6810 c         1 MOL      0.623012
     10 O2          3.5620   -4.0610    1.8490 o         1 MOL     -0.593757
     11 C5          3.0440   -1.3720    2.6970 c3        1 MOL     -0.133715
     12 C6          3.5510   -0.7530    1.4310 c         1 MOL      0.309097
     13 O3          3.0630   -1.0420    0.3050 o         1 MOL     -0.480732
     14 O4          4.4400    0.1080    1.4560 o         1 MOL     -0.480732
     15 H4          1.9540   -2.5620    4.7440 hn        1 MOL      0.332837
     16 H5          1.0620   -2.0540    2.0510 h1        1 MOL     -0.103000
     17 H6          3.8970   -1.8180    3.1910 hc        1 MOL      0.068415
     18 H7          2.7310   -0.5780    3.3740 hc        1 MOL      0.068415
     19 N2          1.5800   -3.8830    0.6470 n         1 MOL     -0.610716
     20 C7          1.7210   -5.0100   -0.2730 c3        1 MOL      0.138385
     21 C8          2.7160   -4.7580   -1.3900 c         1 MOL      0.315819
     22 O5          2.8280   -5.5950   -2.3070 o         1 MOL     -0.533815
     23 C9          0.2830   -5.3180   -0.7660 c3        1 MOL     -0.149761
     24 H8          0.8420   -3.2210    0.4580 hn        1 MOL      0.762731
     25 H9          2.1170   -5.8690    0.2730 h1        1 MOL      0.062317
     26 H10         0.4000   -6.0520   -1.5670 hc        1 MOL      0.030087
     27 H11        -0.2030   -5.7860    0.0900 hc        1 MOL      0.030087
     28 H12        -0.3290   -4.4570   -1.0360 hc        1 MOL      0.030087
     29 N3          3.4290   -3.5900   -1.4150 n         1 MOL      0.272467
     30 C10         4.6290   -3.3420   -2.2190 c3        1 MOL      0.036373
     31 C11         5.8390   -3.3950   -1.2930 c         1 MOL      0.277923
     32 O6          6.8820   -3.8700   -1.6810 o         1 MOL     -0.506071
     33 C12         4.6120   -2.0010   -2.8860 c3        1 MOL      0.001201
     34 C13         3.3760   -1.9050   -3.7700 c         1 MOL      0.520914
     35 O7          2.4960   -1.0300   -3.5100 o         1 MOL     -0.665126
     36 O8          3.2900   -2.7560   -4.7100 o         1 MOL     -0.665126
     37 H13         3.2880   -3.0240   -0.5930 hn        1 MOL     -0.364996
     38 H14         4.7300   -4.1130   -2.9830 h1        1 MOL      0.048632
     39 H15         5.5090   -1.8760   -3.4930 hc        1 MOL      0.001579
     40 H16         4.5160   -1.2070   -2.1440 hc        1 MOL      0.001579
     41 N4          5.6720   -2.7990   -0.0840 n         1 MOL     -0.013638
     42 C14         6.8550   -2.4130    0.7140 c3        1 MOL     -0.298267
     43 C15         7.4230   -1.0540    0.2420 c         1 MOL      0.554089
     44 O9          8.6250   -0.7360    0.4830 o         1 MOL     -0.577881
     45 H17         4.8140   -2.2830    0.0050 hn        1 MOL      0.124265
     46 H18         7.4960   -3.2800    0.5290 h1        1 MOL      0.139503
     47 H19         6.5980   -2.4160    1.7770 h1        1 MOL      0.139503
     48 N5          6.6450   -0.1320   -0.4740 n         1 MOL     -0.167805
     49 C16         7.1470    1.0920   -1.1650 c3        1 MOL     -0.030328
     50 C17         7.1850    2.2020   -0.1410 c         1 MOL      0.456546
     51 O10         7.8800    3.1830   -0.3940 o         1 MOL     -0.574145
     52 C18         6.4160    1.4290   -2.5020 c3        1 MOL     -0.362258
     53 C19         4.9790    1.9160   -2.2290 c         1 MOL      0.560430
     54 N6          4.7570    3.1060   -2.6530 n         1 MOL     -0.653767
     55 O11         4.0880    1.2640   -1.6620 o         1 MOL     -0.418452
     56 H20         5.6570   -0.1290   -0.2900 hn        1 MOL      0.085356
     57 H21         8.1930    0.8800   -1.3570 h1        1 MOL      0.114205
     58 H22         6.2690    0.5230   -3.0830 hc        1 MOL      0.130429
     59 H23         6.9860    2.1540   -3.0770 hc        1 MOL      0.130429
     60 H24         5.5000    3.6780   -3.0340 hn        1 MOL      0.334093
     61 H25         3.8400    3.5010   -2.4920 hn        1 MOL      0.334093
     62 N7          6.4650    2.0730    0.9460 n         1 MOL     -0.170464
     63 C20         6.2590    3.1320    1.9560 c3        1 MOL     -0.087316
     64 C21         5.0300    4.0240    1.9280 c         1 MOL      0.431420
     65 O12         4.9520    4.8510    2.8830 o         1 MOL     -0.558864
     66 H26         6.0420    1.1810    1.1570 hn        1 MOL      0.144811
     67 H27         7.1270    3.7990    1.9920 h1        1 MOL      0.088402
     68 H28         6.2770    2.7010    2.9500 h1        1 MOL      0.088402
     69 N8          4.0740    3.8220    0.9700 n         1 MOL     -0.025214
     70 C22         2.8270    4.5540    0.9650 c3        1 MOL      0.075960
     71 C23         1.6640    3.5170    0.8840 c         1 MOL      0.467598
     72 O13         1.8240    2.4640    0.2810 o         1 MOL     -0.422651
     73 C24         2.7590    5.6700   -0.1150 c3        1 MOL      0.220175
     74 C25         3.9560    6.6180    0.0400 c3        1 MOL     -0.247179
     75 O14         2.8010    5.0890   -1.4050 oh        1 MOL     -0.607775
     76 H29         4.0670    2.9860    0.4060 hn        1 MOL     -0.001930
     77 H30         2.7100    5.0440    1.9280 h1        1 MOL      0.030766
     78 H31         1.8760    6.2690    0.0960 h1        1 MOL      0.015002
     79 H32         2.7430    5.7550   -2.0920 ho        1 MOL      0.392387
     80 H33         4.8280    6.1820   -0.4530 hc        1 MOL      0.061271
     81 H34         3.7320    7.6400   -0.2490 hc        1 MOL      0.061271
     82 H35         4.1110    6.6930    1.1140 hc        1 MOL      0.061271
     83 N9          0.5410    3.8630    1.5120 n         1 MOL     -0.512645
     84 C26        -0.6470    2.9960    1.6290 c3        1 MOL      0.007807
     85 C27        -1.7330    3.2850    0.5150 c         1 MOL      0.665863
     86 O15        -2.1280    4.4740    0.4530 o         1 MOL     -0.616678
     87 C28        -1.1470    3.0280    3.1270 c3        1 MOL      0.108855
     88 C29         0.0470    2.3770    3.9920 c3        1 MOL     -0.034360
     89 C30        -2.5410    2.4320    3.1740 c3        1 MOL     -0.142508
     90 C31         0.2910    0.9120    3.7820 c3        1 MOL      0.186290
     91 H36         0.3140    4.8250    1.7250 hn        1 MOL      0.289214
     92 H37        -0.1700    2.0290    1.4650 h1        1 MOL      0.169067
     93 H38        -1.1870    4.0800    3.3760 hc        1 MOL     -0.021551
     94 H39        -0.1390    2.4560    5.0590 hc        1 MOL     -0.014173
     95 H40         0.9730    2.9330    3.7810 hc        1 MOL     -0.014173
     96 H41        -2.8500    2.6020    4.2000 hc        1 MOL      0.018916
     97 H42        -3.1870    3.0100    2.5160 hc        1 MOL      0.018916
     98 H43        -2.4550    1.3710    2.9220 hc        1 MOL      0.018916
     99 H44         0.6230    0.6130    2.7900 hc        1 MOL     -0.045949
    100 H45         0.9440    0.5910    4.5910 hc        1 MOL     -0.045949
    101 H46        -0.6450    0.3560    3.8590 hc        1 MOL     -0.045949
    102 N10        -2.0420    2.3230   -0.3460 n         1 MOL     -0.483093
    103 C32        -3.1240    2.4050   -1.3170 c3        1 MOL      0.213557
    104 C33        -4.3600    1.5890   -0.8420 c         1 MOL      0.273616
    105 O16        -4.2910    0.7960    0.0640 o         1 MOL     -0.178785
    106 C34        -2.5810    1.9870   -2.7280 c3        1 MOL      0.027976
    107 C35        -1.7550    0.7140   -2.8320 c         1 MOL      0.726530
    108 O17        -2.2210   -0.2180   -3.4790 o         1 MOL     -0.690887
    109 O18        -0.5980    0.6140   -2.4400 o         1 MOL     -0.690887
    110 H47        -1.6990    1.3860   -0.1600 hn        1 MOL      0.104558
    111 H48        -3.4090    3.4500   -1.4270 h1        1 MOL      0.015211
    112 H49        -1.9570    2.8040   -3.0920 hc        1 MOL     -0.044749
    113 H50        -3.3870    1.9250   -3.4550 hc        1 MOL     -0.044749
    114 N11        -5.5120    1.9270   -1.4180 n         1 MOL     -0.512900
    115 C36        -6.8320    1.3730   -1.0090 c3        1 MOL      0.327937
    116 C37        -6.7780   -0.1430   -0.6710 c         1 MOL      0.276361
    117 O19        -7.2540   -0.4810    0.4210 o         1 MOL     -0.499688
    118 C38        -7.9840    1.6840   -2.0110 c3        1 MOL     -0.378981
    119 C39        -9.2920    1.5330   -1.3070 ca        1 MOL      0.110861
    120 C40       -10.2810    0.6570   -1.8230 ca        1 MOL     -0.092980
    121 C41        -9.6080    2.4130   -0.2490 ca        1 MOL     -0.092980
    122 C42       -11.5830    0.7100   -1.2710 ca        1 MOL     -0.209551
    123 C43       -10.9510    2.5350    0.1980 ca        1 MOL     -0.209551
    124 C44       -11.8900    1.6030   -0.2270 ca        1 MOL     -0.003628
    125 H51        -5.4830    2.6910   -2.0800 hn        1 MOL      0.293478
    126 H52        -7.0190    1.8750   -0.0590 h1        1 MOL      0.052525
    127 H53        -7.8480    0.9410   -2.8010 hc        1 MOL      0.110852
    128 H54        -7.8850    2.6530   -2.5030 hc        1 MOL      0.110852
    129 H55       -10.0170    0.0030   -2.6350 ha        1 MOL      0.105794
    130 H56        -8.8200    3.0520    0.1290 ha        1 MOL      0.105794
    131 H57       -12.3680    0.0780   -1.6670 ha        1 MOL      0.128153
    132 H58       -11.2750    3.2650    0.9250 ha        1 MOL      0.128153
    133 H59       -12.9190    1.7350    0.0480 ha        1 MOL      0.071691
    134 N12        -6.2430   -1.0320   -1.5260 n         1 MOL     -0.057140
    135 C45        -6.1500   -2.5210   -1.1460 c3        1 MOL      0.032110
    136 C46        -5.4200   -2.7840    0.2180 c         1 MOL      0.285251
    137 O20        -5.7400   -3.8050    0.8110 o         1 MOL     -0.506091
    138 C47        -5.4960   -3.1760   -2.3990 c3        1 MOL     -0.304302
    139 C48        -5.7420   -2.2170   -3.5380 c3        1 MOL      0.014260
    140 C49        -5.6130   -0.8510   -2.8350 c3        1 MOL      0.082600
    141 H60        -7.1690   -2.8980   -1.0680 h1        1 MOL      0.067051
    142 H61        -4.4160   -3.1750   -2.2840 hc        1 MOL      0.139698
    143 H62        -5.8290   -4.1930   -2.5850 hc        1 MOL      0.139698
    144 H63        -5.0370   -2.4350   -4.3420 hc        1 MOL      0.022846
    145 H64        -6.7360   -2.3230   -3.9550 hc        1 MOL      0.022846
    146 H65        -4.6170   -0.4640   -2.6210 h1        1 MOL      0.002358
    147 H66        -6.1920   -0.2090   -3.5070 h1        1 MOL      0.002358
    148 N13        -4.4530   -1.9580    0.6550 n         1 MOL     -0.003580
    149 C50        -3.6400   -2.1490    1.9460 c3        1 MOL     -0.291982
    150 C51        -4.5320   -1.5850    2.9960 c         1 MOL      0.579774
    151 O21        -4.6960   -2.2130    4.0040 o         1 MOL     -0.550002
    152 C52        -2.2630   -1.5180    1.7660 c3        1 MOL      0.045121
    153 C53        -1.5490   -2.1230    0.5580 c3        1 MOL      0.022948
    154 C54        -0.3810   -1.2980    0.1230 c         1 MOL      1.103995
    155 O22         0.4100   -1.7980   -0.7090 o         1 MOL     -0.953956
    156 O23        -0.2230   -0.0820    0.4390 o         1 MOL     -0.953956
    157 H67        -4.3890   -1.0760    0.1660 hn        1 MOL      0.103384
    158 H68        -3.4090   -3.1980    2.0960 h1        1 MOL      0.158782
    159 H69        -1.6480   -1.6600    2.6540 hc        1 MOL      0.013879
    160 H70        -2.2790   -0.4350    1.6270 hc        1 MOL      0.013879
    161 H71        -2.2540   -2.2130   -0.2750 hc        1 MOL     -0.062426
    162 H72        -1.1160   -3.0610    0.9080 hc        1 MOL     -0.062426
    163 N14        -5.1990   -0.4410    2.6320 n         1 MOL     -0.104780
    164 C55        -6.1210    0.1730    3.5940 c3        1 MOL     -0.286931
    165 H73        -5.7830   -0.0420    4.6080 h1        1 MOL      0.093436
    166 H74        -6.1430    1.2510    3.4390 h1        1 MOL      0.093436
    167 H75        -7.1220   -0.2370    3.4520 h1        1 MOL      0.093436
    168 H76        -5.0380    0.0200    1.7360 hn        1 MOL      0.081016
    169 Ca1         1.6720    0.2450   -1.3800 Ca        1 MOL      1.724183
    170 O24         1.7050    2.4640   -3.0550 oh        1 MOL     -0.957982
    171 H77         1.9110    2.5360   -3.9850 ho        1 MOL      0.440182
    172 H78         1.0210    3.1170   -2.9170 ho        1 MOL      0.440182
@<TRIPOS>BOND
     1    1    2 1   
     2    1    4 1   
     3    1    5 1   
     4    1    6 1   
     5    2    3 2   
     6    2    7 1   
     7    7    8 1   
     8    7   15 1   
     9    8    9 1   
    10    8   11 1   
    11    8   16 1   
    12    9   10 2   
    13    9   19 1   
    14   11   12 1   
    15   11   17 1   
    16   11   18 1   
    17   12   13 1   
    18   12   14 1   
    19   19   20 1   
    20   19   24 1   
    21   20   21 1   
    22   20   23 1   
    23   20   25 1   
    24   21   22 2   
    25   21   29 1   
    26   23   26 1   
    27   23   27 1   
    28   23   28 1   
    29   29   30 1   
    30   29   37 1   
    31   30   31 1   
    32   30   33 1   
    33   30   38 1   
    34   31   32 2   
    35   31   41 1   
    36   33   34 1   
    37   33   39 1   
    38   33   40 1   
    39   34   35 1   
    40   34   36 1   
    41   41   42 1   
    42   41   45 1   
    43   42   43 1   
    44   42   46 1   
    45   42   47 1   
    46   43   44 2   
    47   43   48 1   
    48   48   49 1   
    49   48   56 1   
    50   49   50 1   
    51   49   52 1   
    52   49   57 1   
    53   50   51 2   
    54   50   62 1   
    55   52   53 1   
    56   52   58 1   
    57   52   59 1   
    58   53   54 1   
    59   53   55 2   
    60   54   60 1   
    61   54   61 1   
    62   62   63 1   
    63   62   66 1   
    64   63   64 1   
    65   63   67 1   
    66   63   68 1   
    67   64   65 2   
    68   64   69 1   
    69   69   70 1   
    70   69   76 1   
    71   70   71 1   
    72   70   73 1   
    73   70   77 1   
    74   71   72 2   
    75   71   83 1   
    76   73   74 1   
    77   73   75 1   
    78   73   78 1   
    79   74   80 1   
    80   74   81 1   
    81   74   82 1   
    82   75   79 1   
    83   83   84 1   
    84   83   91 1   
    85   84   85 1   
    86   84   87 1   
    87   84   92 1   
    88   85   86 2   
    89   85  102 1   
    90   87   88 1   
    91   87   89 1   
    92   87   93 1   
    93   88   90 1   
    94   88   94 1   
    95   88   95 1   
    96   89   96 1   
    97   89   97 1   
    98   89   98 1   
    99   90   99 1   
   100   90  100 1   
   101   90  101 1   
   102  102  103 1   
   103  102  110 1   
   104  103  104 1   
   105  103  106 1   
   106  103  111 1   
   107  104  105 2   
   108  104  114 1   
   109  106  107 1   
   110  106  112 1   
   111  106  113 1   
   112  107  108 1   
   113  107  109 1   
   114  114  115 1   
   115  114  125 1   
   116  115  116 1   
   117  115  118 1   
   118  115  126 1   
   119  116  117 2   
   120  116  134 1   
   121  118  119 1   
   122  118  127 1   
   123  118  128 1   
   124  119  120 ar  
   125  119  121 ar  
   126  120  122 ar  
   127  120  129 1   
   128  121  123 ar  
   129  121  130 1   
   130  122  124 ar  
   131  122  131 1   
   132  123  124 ar  
   133  123  132 1   
   134  124  133 1   
   135  134  135 1   
   136  134  140 1   
   137  135  136 1   
   138  135  138 1   
   139  135  141 1   
   140  136  137 2   
   141  136  148 1   
   142  138  139 1   
   143  138  142 1   
   144  138  143 1   
   145  139  140 1   
   146  139  144 1   
   147  139  145 1   
   148  140  146 1   
   149  140  147 1   
   150  148  149 1   
   151  148  157 1   
   152  149  150 1   
   153  149  152 1   
   154  149  158 1   
   155  150  151 2   
   156  150  163 1   
   157  152  153 1   
   158  152  159 1   
   159  152  160 1   
   160  153  154 1   
   161  153  161 1   
   162  153  162 1   
   163  154  155 1   
   164  154  156 1   
   165  163  164 1   
   166  163  168 1   
   167  164  165 1   
   168  164  166 1   
   169  164  167 1   
   170  170  171 1   
   171  170  172 1   
@<TRIPOS>SUBSTRUCTURE
     1 MOL         1 TEMP              0 ****  ****    0 ROOT
