@<TRIPOS>MOLECULE
MOL
  182   178     1     0     0
SMALL
resp


@<TRIPOS>ATOM
      1 C1          1.9970    2.5960    6.1450 c3        1 MOL     -0.293061
      2 C2          1.6410    2.3690    4.7040 c         1 MOL      0.731622
      3 O1          2.4420    2.0380    3.8630 o         1 MOL     -0.594901
      4 H1          1.9880    1.6430    6.6750 hc        1 MOL      0.081624
      5 H2          2.9920    3.0370    6.2090 hc        1 MOL      0.081624
      6 H3          1.2710    3.2700    6.5980 hc        1 MOL      0.081624
      7 N1          0.2860    2.3940    4.3210 n         1 MOL     -0.675766
      8 C3         -0.1670    2.2570    2.9090 c3        1 MOL     -0.012154
      9 C4         -0.2680    3.6310    2.2910 c         1 MOL      0.673264
     10 O2         -1.0230    4.4640    2.7250 o         1 MOL     -0.555021
     11 C5         -1.5370    1.5800    2.9990 c3        1 MOL     -0.218768
     12 C6         -2.3200    1.1520    1.7790 c         1 MOL      0.764600
     13 O3         -3.4950    0.6430    1.8810 o         1 MOL     -0.723229
     14 O4         -1.7560    1.3010    0.6510 o         1 MOL     -0.723229
     15 H4         -0.3810    2.2440    5.0620 hn        1 MOL      0.349554
     16 H5          0.5370    1.7190    2.2800 h1        1 MOL      0.064466
     17 H6         -2.2410    2.2160    3.5290 hc        1 MOL      0.072513
     18 H7         -1.4580    0.6210    3.5250 hc        1 MOL      0.072513
     19 N2          0.4650    3.9400    1.2330 n         1 MOL     -0.289128
     20 C7          0.6660    5.2930    0.8310 c3        1 MOL     -0.019865
     21 C8         -0.5780    5.9000    0.2510 c         1 MOL      0.439647
     22 O5         -0.8170    7.0850    0.5390 o         1 MOL     -0.545608
     23 C9          1.8630    5.3760   -0.1350 c3        1 MOL     -0.133470
     24 C10         3.2920    5.3650    0.4700 c3        1 MOL      0.167879
     25 C11         4.2640    5.6120   -0.7650 c3        1 MOL     -0.191063
     26 C12         5.6860    5.2040   -0.3090 c3        1 MOL      0.201940
     27 N3          6.6550    5.1440   -1.4090 n4        1 MOL     -0.451045
     28 H8          0.7750    3.2010    0.6160 hn        1 MOL      0.129182
     29 H9          0.8910    5.9910    1.6460 h1        1 MOL      0.081540
     30 H10         1.7470    6.3320   -0.6540 hc        1 MOL      0.038171
     31 H11         1.7690    4.5640   -0.8580 hc        1 MOL      0.038171
     32 H12         3.5060    4.3680    0.8690 hc        1 MOL      0.005176
     33 H13         3.4680    6.0840    1.2800 hc        1 MOL      0.005176
     34 H14         4.2370    6.6650   -1.0400 hc        1 MOL      0.061379
     35 H15         4.0240    5.0930   -1.6920 hc        1 MOL      0.061379
     36 H16         5.6350    4.3120    0.3170 hx        1 MOL      0.039831
     37 H17         6.1250    5.9550    0.3490 hx        1 MOL      0.039831
     38 H18         7.5530    4.8690   -1.0380 hn        1 MOL      0.347828
     39 H19         6.4130    4.5090   -2.1610 hn        1 MOL      0.347828
     40 H20         6.7560    6.0860   -1.7690 hn        1 MOL      0.347828
     41 N4         -1.2990    5.1670   -0.6160 n         1 MOL     -0.273262
     42 C13        -2.4830    5.6700   -1.3780 c3        1 MOL      0.071992
     43 C14        -3.7740    5.0640   -0.8190 c         1 MOL      0.374597
     44 O6         -4.8880    5.4410   -1.1330 o         1 MOL     -0.523401
     45 C15        -2.3780    5.2660   -2.8360 c3        1 MOL     -0.129403
     46 C16        -2.0630    3.7470   -3.1860 c         1 MOL      0.632993
     47 O7         -1.7460    2.9420   -2.2310 o         1 MOL     -0.662764
     48 O8         -2.4600    3.3520   -4.3220 o         1 MOL     -0.662764
     49 H21        -1.0560    4.1950   -0.7560 hn        1 MOL      0.155693
     50 H22        -2.5450    6.7620   -1.3690 h1        1 MOL      0.087839
     51 H23        -1.5680    5.8720   -3.2330 hc        1 MOL      0.042691
     52 H24        -3.3010    5.5510   -3.3540 hc        1 MOL      0.042691
     53 N5         -3.6140    4.1320    0.0770 n         1 MOL     -0.011257
     54 C17        -4.7710    3.7470    0.9980 c3        1 MOL     -0.275272
     55 C18        -5.8080    2.8470    0.3600 c         1 MOL      0.560276
     56 O9         -7.0210    3.0690    0.4950 o         1 MOL     -0.562145
     57 H25        -2.6870    3.8720    0.3820 hn        1 MOL      0.135900
     58 H26        -5.3870    4.6400    1.0610 h1        1 MOL      0.117841
     59 H27        -4.4760    3.3710    1.9750 h1        1 MOL      0.117841
     60 N6         -5.3660    1.8780   -0.3950 n         1 MOL     -0.190974
     61 C19        -6.2930    0.8480   -1.0030 c3        1 MOL     -0.052656
     62 C20        -6.6920   -0.2950   -0.0700 c         1 MOL      0.392008
     63 O10        -7.7020   -0.9130   -0.4360 o         1 MOL     -0.494474
     64 C21        -5.7840    0.3140   -2.2940 c3        1 MOL     -0.257541
     65 C22        -4.5100   -0.4350   -2.3140 c         1 MOL      0.600969
     66 N7         -4.3530   -1.3090   -3.2700 n         1 MOL     -0.880313
     67 O11        -3.5660   -0.2590   -1.5490 o         1 MOL     -0.459644
     68 H28        -4.3590    1.8300   -0.4990 hn        1 MOL      0.120692
     69 H29        -7.1870    1.3830   -1.3170 h1        1 MOL      0.136568
     70 H30        -5.6840    1.1600   -2.9770 hc        1 MOL      0.114884
     71 H31        -6.5020   -0.3550   -2.7770 hc        1 MOL      0.114884
     72 H32        -5.1710   -1.5400   -3.8300 hn        1 MOL      0.400621
     73 H33        -3.4610   -1.7800   -3.3240 hn        1 MOL      0.400621
     74 N8         -5.9790   -0.5240    1.0570 n         1 MOL     -0.217792
     75 C23        -6.1300   -1.7100    1.9540 c3        1 MOL     -0.240754
     76 C24        -5.0150   -2.7690    1.9440 c         1 MOL      0.652344
     77 O12        -4.9990   -3.7190    2.7050 o         1 MOL     -0.575149
     78 H34        -5.1240    0.0140    1.1600 hn        1 MOL      0.211407
     79 H35        -7.0330   -2.2070    1.6100 h1        1 MOL      0.131766
     80 H36        -6.3490   -1.4260    2.9820 h1        1 MOL      0.131766
     81 N9         -4.0290   -2.4740    1.1130 n         1 MOL     -0.495379
     82 C25        -3.0040   -3.4450    0.7450 c3        1 MOL     -0.004490
     83 C26        -1.6130   -2.8100    0.5880 c         1 MOL      0.536628
     84 O13        -1.4040   -1.9130   -0.2330 o         1 MOL     -0.584066
     85 C27        -3.5190   -4.0700   -0.4800 c3        1 MOL      0.022418
     86 C28        -4.8880   -4.7890   -0.4050 ca        1 MOL     -0.089037
     87 C29        -6.0340   -4.1100   -0.9600 ca        1 MOL     -0.098247
     88 C30        -5.1030   -5.9310    0.3440 ca        1 MOL     -0.098247
     89 C31        -7.3460   -4.5610   -0.6920 ca        1 MOL     -0.333964
     90 C32        -6.4140   -6.4450    0.5880 ca        1 MOL     -0.333964
     91 C33        -7.5320   -5.7700    0.0450 ca        1 MOL      0.419830
     92 O14        -8.7290   -6.2500    0.3140 oh        1 MOL     -0.479157
     93 H37        -4.1000   -1.6230    0.5820 hn        1 MOL      0.386807
     94 H38        -2.9560   -4.1930    1.5270 h1        1 MOL      0.102304
     95 H39        -2.8390   -4.9000   -0.6760 hc        1 MOL      0.000707
     96 H40        -3.5780   -3.3680   -1.3050 hc        1 MOL      0.000707
     97 H41        -5.9040   -3.2160   -1.5380 ha        1 MOL      0.130779
     98 H42        -4.2810   -6.4850    0.7730 ha        1 MOL      0.130779
     99 H43        -8.1980   -4.0150   -1.0500 ha        1 MOL      0.167120
    100 H44        -6.6240   -7.2960    1.2180 ha        1 MOL      0.167120
    101 H45        -8.6820   -7.0360    0.8740 ho        1 MOL      0.357334
    102 N10        -0.7130   -3.2470    1.4550 n         1 MOL     -0.441154
    103 C34         0.7230   -2.8650    1.5220 c3        1 MOL      0.106948
    104 C35         1.4610   -3.6370    0.3850 c         1 MOL      0.407083
    105 O15         1.4860   -4.8720    0.4670 o         1 MOL     -0.529606
    106 C36         1.3340   -2.8840    2.9440 c3        1 MOL     -0.087795
    107 C37         0.8060   -1.7330    3.8400 c3        1 MOL      0.102673
    108 C38         2.8690   -2.8640    2.7520 c3        1 MOL     -0.013854
    109 C39         1.2280   -1.7220    5.2840 c3        1 MOL     -0.181845
    110 H46        -0.9810   -3.9900    2.0760 hn        1 MOL      0.288727
    111 H47         0.7130   -1.8080    1.2610 h1        1 MOL      0.020267
    112 H48         1.0880   -3.8670    3.3510 hc        1 MOL      0.042904
    113 H49        -0.2720   -1.8150    3.8840 hc        1 MOL      0.022685
    114 H50         1.0750   -0.7780    3.3960 hc        1 MOL      0.022685
    115 H51         3.2840   -3.7290    2.2320 hc        1 MOL      0.005261
    116 H52         3.1640   -1.9970    2.1580 hc        1 MOL      0.005261
    117 H53         3.4350   -2.9140    3.6890 hc        1 MOL      0.005261
    118 H54         1.2970   -2.7050    5.7450 hc        1 MOL      0.046586
    119 H55         2.2500   -1.3450    5.3480 hc        1 MOL      0.046586
    120 H56         0.5010   -1.1790    5.8890 hc        1 MOL      0.046586
    121 N11         1.9980   -2.9260   -0.6380 n         1 MOL     -0.059666
    122 C40         2.9010   -3.5020   -1.6820 c3        1 MOL     -0.150283
    123 C41         4.3080   -3.5970   -1.1850 c         1 MOL      0.477763
    124 O16         4.6460   -2.9050   -0.2480 o         1 MOL     -0.314441
    125 C42         2.6350   -2.8740   -3.0370 c3        1 MOL      0.079097
    126 O17         2.7880   -1.4960   -3.1290 oh        1 MOL     -0.587244
    127 H57         1.7590   -1.9460   -0.6640 hn        1 MOL      0.084532
    128 H58         2.5890   -4.5420   -1.7990 h1        1 MOL      0.058794
    129 H59         1.5850   -3.0810   -3.2640 h1        1 MOL      0.052715
    130 H60         3.3530   -3.2950   -3.7360 h1        1 MOL      0.052715
    131 H61         2.1730   -1.0820   -2.5250 ho        1 MOL      0.426970
    132 N12         5.1760   -4.4650   -1.7710 n         1 MOL     -0.426026
    133 C43         6.4710   -4.7100   -1.2680 c3        1 MOL      0.080025
    134 C44         7.3030   -3.3720   -1.2710 c         1 MOL      0.392300
    135 O18         8.0900   -3.1490   -0.3490 o         1 MOL     -0.498467
    136 C45         7.2340   -5.8230   -1.9510 c3        1 MOL     -0.342522
    137 H62         4.8450   -5.0980   -2.4910 hn        1 MOL      0.293432
    138 H63         6.3870   -5.0560   -0.2330 h1        1 MOL      0.107021
    139 H64         7.2450   -5.7370   -3.0330 hc        1 MOL      0.110726
    140 H65         8.2290   -5.9140   -1.5100 hc        1 MOL      0.110726
    141 H66         6.7560   -6.7700   -1.6850 hc        1 MOL      0.110726
    142 N13         6.9740   -2.4400   -2.1540 n         1 MOL     -0.288544
    143 C46         7.6580   -1.0970   -2.1720 c3        1 MOL      0.088714
    144 C47         7.2040   -0.2750   -0.9110 c         1 MOL      0.375915
    145 O19         7.9580    0.5360   -0.3590 o         1 MOL     -0.540389
    146 C48         7.2420   -0.3580   -3.5190 c3        1 MOL     -0.290497
    147 H67         6.3720   -2.6800   -2.9230 hn        1 MOL      0.254285
    148 H68         8.7300   -1.2690   -2.1050 h1        1 MOL      0.088126
    149 H69         7.3230   -1.1480   -4.2610 hc        1 MOL      0.085220
    150 H70         6.2560    0.0530   -3.3130 hc        1 MOL      0.085220
    151 H71         7.8160    0.5450   -3.7150 hc        1 MOL      0.085220
    152 N14         5.9500   -0.4290   -0.4650 n         1 MOL     -0.064281
    153 C49         5.4340    0.2990    0.7010 c3        1 MOL     -0.228964
    154 C50         5.8480   -0.4290    1.9790 c         1 MOL      0.506348
    155 O20         6.0690    0.1720    3.0060 o         1 MOL     -0.555339
    156 C51         3.8760    0.3800    0.6700 c3        1 MOL      0.049099
    157 C52         3.3420    1.1030   -0.5040 c3        1 MOL      0.030449
    158 C53         1.8050    0.8970   -0.6880 c         1 MOL      0.526357
    159 O21         1.3780   -0.1920   -1.0750 o         1 MOL     -0.568550
    160 O22         0.9620    1.8190   -0.5130 o         1 MOL     -0.568550
    161 H72         5.3730   -1.1330   -0.9050 hn        1 MOL      0.081562
    162 H73         5.8550    1.2970    0.8020 h1        1 MOL      0.120988
    163 H74         3.5260    0.8290    1.5980 hc        1 MOL      0.055812
    164 H75         3.4640   -0.6280    0.5960 hc        1 MOL      0.055812
    165 H76         3.8410    0.7480   -1.4160 hc        1 MOL     -0.032926
    166 H77         3.6610    2.1450   -0.5900 hc        1 MOL     -0.032926
    167 N15         6.0780   -1.7710    1.9770 n         1 MOL      0.006410
    168 C54         6.7000   -2.4580    3.0810 c3        1 MOL     -0.291401
    169 H78         6.2030   -3.4150    3.2390 h1        1 MOL      0.105062
    170 H79         7.7540   -2.6290    2.8570 h1        1 MOL      0.105062
    171 H80         6.6140   -1.8520    3.9830 h1        1 MOL      0.105062
    172 H81         5.7970   -2.2760    1.1550 hn        1 MOL      0.040947
    173 Ca1        -1.0020    0.5490   -1.6570 Ca        1 MOL      1.642156
    174 O23         0.6930    1.5100   -3.6240 oh        1 MOL     -0.829514
    175 H82         0.1160    2.0740   -4.1430 ho        1 MOL      0.399625
    176 H83         1.5730    1.6890   -3.9480 ho        1 MOL      0.399625
    177 O24        -0.7120   -1.6410   -3.2440 oh        1 MOL     -0.829514
    178 H84        -0.8200   -2.5620   -2.9930 ho        1 MOL      0.399625
    179 H85        -0.8440   -1.6360   -4.1930 ho        1 MOL      0.399625
    180 O25        -2.2830    0.8030   -4.0440 oh        1 MOL     -0.829514
    181 H86        -2.5130    1.7190   -4.2200 ho        1 MOL      0.399625
    182 H87        -2.5530    0.3230   -4.8310 ho        1 MOL      0.399625
@<TRIPOS>BOND
     1    1    2 1   
     2    1    4 1   
     3    1    5 1   
     4    1    6 1   
     5    2    3 2   
     6    2    7 1   
     7    7    8 1   
     8    7   15 1   
     9    8    9 1   
    10    8   11 1   
    11    8   16 1   
    12    9   10 2   
    13    9   19 1   
    14   11   12 1   
    15   11   17 1   
    16   11   18 1   
    17   12   13 1   
    18   12   14 1   
    19   19   20 1   
    20   19   28 1   
    21   20   21 1   
    22   20   23 1   
    23   20   29 1   
    24   21   22 2   
    25   21   41 1   
    26   23   24 1   
    27   23   30 1   
    28   23   31 1   
    29   24   25 1   
    30   24   32 1   
    31   24   33 1   
    32   25   26 1   
    33   25   34 1   
    34   25   35 1   
    35   26   27 1   
    36   26   36 1   
    37   26   37 1   
    38   27   38 1   
    39   27   39 1   
    40   27   40 1   
    41   41   42 1   
    42   41   49 1   
    43   42   43 1   
    44   42   45 1   
    45   42   50 1   
    46   43   44 2   
    47   43   53 1   
    48   45   46 1   
    49   45   51 1   
    50   45   52 1   
    51   46   47 1   
    52   46   48 1   
    53   53   54 1   
    54   53   57 1   
    55   54   55 1   
    56   54   58 1   
    57   54   59 1   
    58   55   56 2   
    59   55   60 1   
    60   60   61 1   
    61   60   68 1   
    62   61   62 1   
    63   61   64 1   
    64   61   69 1   
    65   62   63 2   
    66   62   74 1   
    67   64   65 1   
    68   64   70 1   
    69   64   71 1   
    70   65   66 1   
    71   65   67 2   
    72   66   72 1   
    73   66   73 1   
    74   74   75 1   
    75   74   78 1   
    76   75   76 1   
    77   75   79 1   
    78   75   80 1   
    79   76   77 2   
    80   76   81 1   
    81   81   82 1   
    82   81   93 1   
    83   82   83 1   
    84   82   85 1   
    85   82   94 1   
    86   83   84 2   
    87   83  102 1   
    88   85   86 1   
    89   85   95 1   
    90   85   96 1   
    91   86   87 ar  
    92   86   88 ar  
    93   87   89 ar  
    94   87   97 1   
    95   88   90 ar  
    96   88   98 1   
    97   89   91 ar  
    98   89   99 1   
    99   90   91 ar  
   100   90  100 1   
   101   91   92 1   
   102   92  101 1   
   103  102  103 1   
   104  102  110 1   
   105  103  104 1   
   106  103  106 1   
   107  103  111 1   
   108  104  105 2   
   109  104  121 1   
   110  106  107 1   
   111  106  108 1   
   112  106  112 1   
   113  107  109 1   
   114  107  113 1   
   115  107  114 1   
   116  108  115 1   
   117  108  116 1   
   118  108  117 1   
   119  109  118 1   
   120  109  119 1   
   121  109  120 1   
   122  121  122 1   
   123  121  127 1   
   124  122  123 1   
   125  122  125 1   
   126  122  128 1   
   127  123  124 2   
   128  123  132 1   
   129  125  126 1   
   130  125  129 1   
   131  125  130 1   
   132  126  131 1   
   133  132  133 1   
   134  132  137 1   
   135  133  134 1   
   136  133  136 1   
   137  133  138 1   
   138  134  135 2   
   139  134  142 1   
   140  136  139 1   
   141  136  140 1   
   142  136  141 1   
   143  142  143 1   
   144  142  147 1   
   145  143  144 1   
   146  143  146 1   
   147  143  148 1   
   148  144  145 2   
   149  144  152 1   
   150  146  149 1   
   151  146  150 1   
   152  146  151 1   
   153  152  153 1   
   154  152  161 1   
   155  153  154 1   
   156  153  156 1   
   157  153  162 1   
   158  154  155 2   
   159  154  167 1   
   160  156  157 1   
   161  156  163 1   
   162  156  164 1   
   163  157  158 1   
   164  157  165 1   
   165  157  166 1   
   166  158  159 1   
   167  158  160 1   
   168  167  168 1   
   169  167  172 1   
   170  168  169 1   
   171  168  170 1   
   172  168  171 1   
   173  174  175 1   
   174  174  176 1   
   175  177  178 1   
   176  177  179 1   
   177  180  181 1   
   178  180  182 1   
@<TRIPOS>SUBSTRUCTURE
     1 MOL         1 TEMP              0 ****  ****    0 ROOT
