@<TRIPOS>MOLECULE
MOL
  189   185     1     0     0
SMALL
resp


@<TRIPOS>ATOM
      1 C1          0.2390   -4.8150    5.5490 c3        1 MOL     -0.427134
      2 C2          0.9880   -3.9560    4.4230 c         1 MOL      0.697521
      3 O1          1.1600   -2.7450    4.5320 o         1 MOL     -0.609266
      4 H1          0.7960   -5.7330    5.7360 hc        1 MOL      0.111911
      5 H2          0.1770   -4.2340    6.4690 hc        1 MOL      0.111911
      6 H3         -0.7660   -5.0640    5.2090 hc        1 MOL      0.111911
      7 N1          1.4160   -4.6060    3.3450 n         1 MOL     -0.554951
      8 C3          2.0780   -4.1610    2.1210 c3        1 MOL      0.282600
      9 C4          1.8230   -5.1770    1.0090 c         1 MOL      0.421182
     10 O2          2.0980   -6.3520    1.2520 o         1 MOL     -0.569428
     11 C5          3.5950   -4.0970    2.4590 c3        1 MOL     -0.475369
     12 C6          4.2750   -3.0310    1.6160 c         1 MOL      0.832143
     13 O3          5.4050   -2.5970    2.0100 o         1 MOL     -0.716160
     14 O4          3.6400   -2.4630    0.7180 o         1 MOL     -0.716160
     15 H4          1.3140   -5.6080    3.4020 hn        1 MOL      0.276242
     16 H5          1.7090   -3.1880    1.7800 h1        1 MOL      0.021284
     17 H6          4.1120   -5.0360    2.2420 hc        1 MOL      0.128203
     18 H7          3.6720   -3.7140    3.4760 hc        1 MOL      0.128203
     19 N2          1.6110   -4.7350   -0.2240 n         1 MOL     -0.112299
     20 C7          1.6210   -5.6430   -1.3510 c3        1 MOL     -0.146390
     21 C8          2.7420   -5.2140   -2.3990 c         1 MOL      0.503965
     22 O5          3.0760   -6.0180   -3.2680 o         1 MOL     -0.582949
     23 C9          0.2220   -5.8340   -1.9580 c3        1 MOL      0.210120
     24 C10        -0.4790   -4.4940   -2.3220 c3        1 MOL      0.021927
     25 C11        -0.5740   -6.8290   -1.0520 c3        1 MOL     -0.240305
     26 C12        -1.8050   -4.5630   -3.0410 c3        1 MOL     -0.420995
     27 H8          1.5540   -3.7320   -0.3380 hn        1 MOL      0.119785
     28 H9          1.9450   -6.6450   -1.0580 h1        1 MOL      0.113630
     29 H10         0.4320   -6.3970   -2.8720 hc        1 MOL     -0.040939
     30 H11         0.2000   -3.8170   -2.8370 hc        1 MOL      0.069157
     31 H12        -0.6440   -4.0140   -1.3520 hc        1 MOL      0.069157
     32 H13        -0.0290   -7.7650   -0.9370 hc        1 MOL      0.045811
     33 H14        -0.6670   -6.4250   -0.0370 hc        1 MOL      0.045811
     34 H15        -1.5450   -7.0210   -1.5030 hc        1 MOL      0.045811
     35 H16        -2.0730   -3.5400   -3.2900 hc        1 MOL      0.103189
     36 H17        -1.7730   -5.1380   -3.9720 hc        1 MOL      0.103189
     37 H18        -2.5370   -4.9830   -2.3620 hc        1 MOL      0.103189
     38 N3          3.3970   -4.0790   -2.2750 n         1 MOL     -0.383101
     39 C13         4.2170   -3.5630   -3.4140 c3        1 MOL      0.100823
     40 C14         5.5450   -2.8900   -2.9300 c         1 MOL      0.449004
     41 O6          6.4960   -2.7790   -3.6870 o         1 MOL     -0.569953
     42 C15         3.3770   -2.4710   -4.1890 c3        1 MOL     -0.288278
     43 C16         2.6490   -1.3910   -3.2940 c         1 MOL      0.799957
     44 O7          2.9970   -1.2600   -2.0630 o         1 MOL     -0.711155
     45 O8          1.6280   -0.8320   -3.7860 o         1 MOL     -0.711155
     46 H19         3.1720   -3.4910   -1.4920 hn        1 MOL      0.260860
     47 H20         4.5560   -4.3610   -4.0610 h1        1 MOL      0.093359
     48 H21         2.6650   -2.9980   -4.8190 hc        1 MOL      0.065804
     49 H22         3.9860   -1.8390   -4.8350 hc        1 MOL      0.065804
     50 N4          5.6770   -2.4400   -1.6490 n         1 MOL     -0.251060
     51 C17         6.9810   -2.0030   -1.0970 c3        1 MOL     -0.118930
     52 C18         7.3010   -0.5180   -1.2670 c         1 MOL      0.446702
     53 O9          8.4530   -0.1910   -0.8350 o         1 MOL     -0.611234
     54 H23         4.9240   -2.4570   -0.9790 hn        1 MOL      0.101825
     55 H24         7.8190   -2.5840   -1.4850 h1        1 MOL      0.106364
     56 H25         7.0290   -2.2140   -0.0280 h1        1 MOL      0.106364
     57 N5          6.4450    0.2820   -1.8590 n         1 MOL     -0.221666
     58 C19         6.7420    1.6590   -2.1470 c3        1 MOL      0.015093
     59 C20         7.0630    2.4970   -0.8550 c         1 MOL      0.447541
     60 O10         7.6690    3.5340   -1.0940 o         1 MOL     -0.585350
     61 C21         5.5800    2.2890   -2.8720 c3        1 MOL     -0.187173
     62 C22         4.2140    2.1030   -2.1560 c         1 MOL      0.719796
     63 O11         4.1060    1.6650   -0.9720 o         1 MOL     -0.675989
     64 O12         3.2280    2.2980   -2.8580 o         1 MOL     -0.675989
     65 H26         5.5500   -0.1360   -2.0790 hn        1 MOL      0.213357
     66 H27         7.6310    1.7720   -2.7700 h1        1 MOL      0.080695
     67 H28         5.6740    1.8660   -3.8730 hc        1 MOL      0.054516
     68 H29         5.7820    3.3360   -3.0870 hc        1 MOL      0.054516
     69 N6          6.6940    2.1150    0.3650 n         1 MOL     -0.147832
     70 C23         6.9560    2.8610    1.6280 c3        1 MOL     -0.270629
     71 C24         5.7150    3.7140    1.9480 c         1 MOL      0.544329
     72 O13         5.7960    4.6310    2.7650 o         1 MOL     -0.620386
     73 H30         6.0870    1.3180    0.4550 hn        1 MOL      0.295112
     74 H31         7.7330    3.6160    1.5180 h1        1 MOL      0.123198
     75 H32         7.0870    2.1410    2.4370 h1        1 MOL      0.123198
     76 N7          4.5950    3.5310    1.3060 n         1 MOL     -0.127137
     77 C25         3.3260    4.1750    1.5790 c3        1 MOL      0.109307
     78 C26         2.0660    3.2320    1.6530 c         1 MOL      0.207280
     79 O14         2.1460    2.0410    1.3640 o         1 MOL     -0.412590
     80 C27         2.9430    5.1900    0.5230 c3        1 MOL     -0.015700
     81 C28         4.0750    6.1690    0.3250 c3        1 MOL     -0.175257
     82 C29         3.7140    7.2590   -0.7210 c         1 MOL      0.637024
     83 N8          4.5050    7.4260   -1.7710 n         1 MOL     -0.798653
     84 O15         2.6980    7.9120   -0.7280 o         1 MOL     -0.570386
     85 H33         4.5460    2.7560    0.6570 hn        1 MOL      0.062397
     86 H34         3.3750    4.6040    2.5850 h1        1 MOL      0.030639
     87 H35         2.0830    5.7570    0.8800 hc        1 MOL      0.042796
     88 H36         2.7250    4.7530   -0.4550 hc        1 MOL      0.042796
     89 H37         4.9230    5.5610    0.0100 hc        1 MOL      0.055449
     90 H38         4.3210    6.6310    1.2790 hc        1 MOL      0.055449
     91 H39         5.2210    6.8040   -2.1110 hn        1 MOL      0.353583
     92 H40         4.2570    8.2130   -2.3390 hn        1 MOL      0.353583
     93 N9          1.0050    3.6980    2.2900 n         1 MOL     -0.233984
     94 C30        -0.2350    2.9670    2.5800 c3        1 MOL     -0.016362
     95 C31        -1.2310    3.3860    1.5490 c         1 MOL      0.415942
     96 O16        -1.7300    4.4860    1.5760 o         1 MOL     -0.560914
     97 C32        -0.7680    3.2510    4.0220 c3        1 MOL      0.266187
     98 C33        -1.9900    2.3700    4.3220 c3        1 MOL     -0.359792
     99 C34         0.4050    2.8920    4.9980 c3        1 MOL     -0.359792
    100 H41         1.1480    4.6450    2.6020 hn        1 MOL      0.262628
    101 H42         0.0650    1.9300    2.4410 h1        1 MOL      0.122648
    102 H43        -0.9330    4.3210    4.1290 hc        1 MOL     -0.029680
    103 H44        -2.3940    2.5450    5.3170 hc        1 MOL      0.079910
    104 H45        -2.7010    2.5610    3.5280 hc        1 MOL      0.079910
    105 H46        -1.7570    1.3030    4.2880 hc        1 MOL      0.079910
    106 H47         0.0400    2.9120    6.0270 hc        1 MOL      0.079910
    107 H48         0.6240    1.8490    4.7700 hc        1 MOL      0.079910
    108 H49         1.2640    3.5490    4.8420 hc        1 MOL      0.079910
    109 N10        -1.4790    2.4570    0.6450 n         1 MOL     -0.335002
    110 C35        -2.5980    2.4920   -0.2460 c3        1 MOL      0.521770
    111 C36        -3.8930    2.2600    0.5370 c         1 MOL     -0.027144
    112 O17        -3.9070    1.5070    1.4970 o         1 MOL     -0.016867
    113 C37        -2.3320    1.5760   -1.4880 c3        1 MOL     -0.665905
    114 C38        -3.5330    1.5150   -2.3410 c         1 MOL      0.949730
    115 N11        -3.9990    2.6200   -2.8440 n         1 MOL     -0.877937
    116 O18        -4.2050    0.5400   -2.4520 o         1 MOL     -0.673182
    117 H50        -1.0680    1.5470    0.7560 hn        1 MOL      0.160113
    118 H51        -2.6420    3.4900   -0.6720 h1        1 MOL     -0.024802
    119 H52        -2.0860    0.5820   -1.1140 hc        1 MOL      0.194455
    120 H53        -1.5070    2.1070   -1.9770 hc        1 MOL      0.194455
    121 H54        -3.4180    3.4360   -2.7660 hn        1 MOL      0.360863
    122 H55        -4.8380    2.5490   -3.4130 hn        1 MOL      0.360863
    123 N12        -5.0090    2.8440    0.1240 n         1 MOL     -0.244670
    124 C39        -6.3320    2.5920    0.7180 c3        1 MOL      0.161831
    125 C40        -6.6300    1.1010    0.8980 c         1 MOL      0.140708
    126 O19        -7.2070    0.6980    1.9630 o         1 MOL     -0.518945
    127 C41        -7.4840    3.2840   -0.0630 c3        1 MOL     -0.109035
    128 C42        -7.3580    3.2010   -1.5440 ca        1 MOL      0.152366
    129 C43        -6.9420    4.2720   -2.3660 ca        1 MOL     -0.290872
    130 C44        -7.7930    2.0420   -2.1950 ca        1 MOL     -0.290872
    131 C45        -6.8080    4.1010   -3.7890 ca        1 MOL     -0.157758
    132 C46        -7.8200    1.8940   -3.5900 ca        1 MOL     -0.157758
    133 C47        -7.2370    2.9430   -4.4320 ca        1 MOL      0.291399
    134 O20        -7.2120    2.8560   -5.7480 oh        1 MOL     -0.548914
    135 H56        -5.0350    3.4100   -0.7140 hn        1 MOL      0.153442
    136 H57        -6.3810    3.0540    1.7030 h1        1 MOL      0.043486
    137 H58        -7.4100    4.3390    0.1830 hc        1 MOL      0.054139
    138 H59        -8.4800    3.0130    0.2750 hc        1 MOL      0.054139
    139 H60        -6.6300    5.2500   -2.0100 ha        1 MOL      0.161042
    140 H61        -8.2880    1.2350   -1.6840 ha        1 MOL      0.161042
    141 H62        -6.5610    4.9530   -4.3980 ha        1 MOL      0.118089
    142 H63        -8.2960    1.0360   -4.0680 ha        1 MOL      0.118089
    143 H64        -7.5890    2.0200   -6.0280 ho        1 MOL      0.434568
    144 N13        -6.2000    0.2620   -0.0510 n         1 MOL      0.344690
    145 C48        -6.6210   -1.1010    0.0640 c3        1 MOL     -0.369904
    146 C49        -5.7030   -1.9940    0.9630 c         1 MOL      0.600940
    147 O21        -6.0200   -3.0770    1.3840 o         1 MOL     -0.536948
    148 C50        -6.6420   -1.7060   -1.3520 c3        1 MOL      0.219609
    149 C51        -7.6000   -2.9280   -1.5880 c3        1 MOL     -0.218058
    150 C52        -9.1550   -2.6920   -1.3880 c         1 MOL      0.677655
    151 O22        -9.6140   -3.1760   -0.3370 o         1 MOL     -0.723572
    152 O23        -9.7340   -2.0830   -2.2710 o         1 MOL     -0.723572
    153 H65        -5.9000    0.6810   -0.9090 hn        1 MOL      0.137634
    154 H66        -7.6400   -1.1610    0.4480 h1        1 MOL      0.174554
    155 H67        -5.6510   -2.1140   -1.5410 hc        1 MOL     -0.031912
    156 H68        -6.9210   -0.9910   -2.1240 hc        1 MOL     -0.031912
    157 H69        -7.2260   -3.7730   -1.0180 hc        1 MOL      0.006436
    158 H70        -7.3190   -3.3580   -2.5630 hc        1 MOL      0.006436
    159 N14        -4.5230   -1.5120    1.2990 n         1 MOL     -0.251896
    160 C53        -3.6470   -1.9820    2.3790 c3        1 MOL      0.044788
    161 C54        -4.1150   -1.4150    3.7010 c         1 MOL      0.403694
    162 O24        -4.2600   -2.2320    4.6440 o         1 MOL     -0.548929
    163 C55        -2.2070   -1.5370    2.2220 c3        1 MOL     -0.050479
    164 C56        -1.5450   -2.1280    0.9970 c3        1 MOL      0.178499
    165 C57        -0.2640   -1.4330    0.5550 c         1 MOL      0.781005
    166 O25         0.5680   -2.0530   -0.1120 o         1 MOL     -0.761447
    167 O26        -0.1370   -0.2350    0.8650 o         1 MOL     -0.761447
    168 H71        -4.3700   -0.5470    1.0200 hn        1 MOL     -0.052139
    169 H72        -3.7070   -3.0700    2.3420 h1        1 MOL      0.075486
    170 H73        -1.6390   -1.8420    3.1030 hc        1 MOL      0.010677
    171 H74        -2.0440   -0.4630    2.1580 hc        1 MOL      0.010677
    172 H75        -2.2110   -1.9200    0.1660 hc        1 MOL     -0.076003
    173 H76        -1.3670   -3.1900    1.1560 hc        1 MOL     -0.076003
    174 N15        -4.4890   -0.0570    3.7940 n         1 MOL     -0.003170
    175 C58        -5.0700    0.5680    4.9660 c3        1 MOL     -0.208772
    176 H77        -5.7490    1.3620    4.6540 h1        1 MOL      0.072424
    177 H78        -5.6220   -0.1760    5.5390 h1        1 MOL      0.072424
    178 H79        -4.2780    0.9900    5.5840 h1        1 MOL      0.072424
    179 H80        -4.4280    0.5550    2.9970 hn        1 MOL      0.003353
    180 Ca1         2.4340   -0.2330    0.1170 Ca        1 MOL      1.733664
    181 O27         2.1960   -0.9440    2.8020 oh        1 MOL     -0.957880
    182 O28         1.3900    1.0600   -1.8480 oh        1 MOL     -0.957880
    183 H81         1.4730   -1.4720    3.1260 ho        1 MOL      0.447507
    184 H82         2.0660    1.5970   -2.2640 ho        1 MOL      0.447507
    185 H83         2.7910   -0.8620    3.5520 ho        1 MOL      0.447507
    186 H84         1.1690    0.4060   -2.5130 ho        1 MOL      0.447507
    187 O29         5.0210    0.0310    1.7730 oh        1 MOL     -0.957880
    188 H85         4.5140    0.0000    2.5760 ho        1 MOL      0.447507
    189 H86         5.4760   -0.8130    1.7400 ho        1 MOL      0.447507
@<TRIPOS>BOND
     1    1    2 1   
     2    1    4 1   
     3    1    5 1   
     4    1    6 1   
     5    2    3 2   
     6    2    7 1   
     7    7    8 1   
     8    7   15 1   
     9    8    9 1   
    10    8   11 1   
    11    8   16 1   
    12    9   10 2   
    13    9   19 1   
    14   11   12 1   
    15   11   17 1   
    16   11   18 1   
    17   12   13 1   
    18   12   14 1   
    19   19   20 1   
    20   19   27 1   
    21   20   21 1   
    22   20   23 1   
    23   20   28 1   
    24   21   22 2   
    25   21   38 1   
    26   23   24 1   
    27   23   25 1   
    28   23   29 1   
    29   24   26 1   
    30   24   30 1   
    31   24   31 1   
    32   25   32 1   
    33   25   33 1   
    34   25   34 1   
    35   26   35 1   
    36   26   36 1   
    37   26   37 1   
    38   38   39 1   
    39   38   46 1   
    40   39   40 1   
    41   39   42 1   
    42   39   47 1   
    43   40   41 2   
    44   40   50 1   
    45   42   43 1   
    46   42   48 1   
    47   42   49 1   
    48   43   44 1   
    49   43   45 1   
    50   50   51 1   
    51   50   54 1   
    52   51   52 1   
    53   51   55 1   
    54   51   56 1   
    55   52   53 2   
    56   52   57 1   
    57   57   58 1   
    58   57   65 1   
    59   58   59 1   
    60   58   61 1   
    61   58   66 1   
    62   59   60 2   
    63   59   69 1   
    64   61   62 1   
    65   61   67 1   
    66   61   68 1   
    67   62   63 1   
    68   62   64 1   
    69   69   70 1   
    70   69   73 1   
    71   70   71 1   
    72   70   74 1   
    73   70   75 1   
    74   71   72 2   
    75   71   76 1   
    76   76   77 1   
    77   76   85 1   
    78   77   78 1   
    79   77   80 1   
    80   77   86 1   
    81   78   79 2   
    82   78   93 1   
    83   80   81 1   
    84   80   87 1   
    85   80   88 1   
    86   81   82 1   
    87   81   89 1   
    88   81   90 1   
    89   82   83 1   
    90   82   84 2   
    91   83   91 1   
    92   83   92 1   
    93   93   94 1   
    94   93  100 1   
    95   94   95 1   
    96   94   97 1   
    97   94  101 1   
    98   95   96 2   
    99   95  109 1   
   100   97   98 1   
   101   97   99 1   
   102   97  102 1   
   103   98  103 1   
   104   98  104 1   
   105   98  105 1   
   106   99  106 1   
   107   99  107 1   
   108   99  108 1   
   109  109  110 1   
   110  109  117 1   
   111  110  111 1   
   112  110  113 1   
   113  110  118 1   
   114  111  112 2   
   115  111  123 1   
   116  113  114 1   
   117  113  119 1   
   118  113  120 1   
   119  114  115 1   
   120  114  116 2   
   121  115  121 1   
   122  115  122 1   
   123  123  124 1   
   124  123  135 1   
   125  124  125 1   
   126  124  127 1   
   127  124  136 1   
   128  125  126 2   
   129  125  144 1   
   130  127  128 1   
   131  127  137 1   
   132  127  138 1   
   133  128  129 ar  
   134  128  130 ar  
   135  129  131 ar  
   136  129  139 1   
   137  130  132 ar  
   138  130  140 1   
   139  131  133 ar  
   140  131  141 1   
   141  132  133 ar  
   142  132  142 1   
   143  133  134 1   
   144  134  143 1   
   145  144  145 1   
   146  144  153 1   
   147  145  146 1   
   148  145  148 1   
   149  145  154 1   
   150  146  147 2   
   151  146  159 1   
   152  148  149 1   
   153  148  155 1   
   154  148  156 1   
   155  149  150 1   
   156  149  157 1   
   157  149  158 1   
   158  150  151 1   
   159  150  152 1   
   160  159  160 1   
   161  159  168 1   
   162  160  161 1   
   163  160  163 1   
   164  160  169 1   
   165  161  162 2   
   166  161  174 1   
   167  163  164 1   
   168  163  170 1   
   169  163  171 1   
   170  164  165 1   
   171  164  172 1   
   172  164  173 1   
   173  165  166 1   
   174  165  167 1   
   175  174  175 1   
   176  174  179 1   
   177  175  176 1   
   178  175  177 1   
   179  175  178 1   
   180  181  183 1   
   181  181  185 1   
   182  182  184 1   
   183  182  186 1   
   184  187  188 1   
   185  187  189 1   
@<TRIPOS>SUBSTRUCTURE
     1 MOL         1 TEMP              0 ****  ****    0 ROOT
