@<TRIPOS>MOLECULE
MOL
  189   185     1     0     0
SMALL
resp


@<TRIPOS>ATOM
      1 C1          0.0860   -4.6030    5.8120 c3        1 MOL     -0.255687
      2 C2          0.6090   -3.8420    4.5050 c         1 MOL      0.674470
      3 O1          0.7380   -2.6360    4.4720 o         1 MOL     -0.607060
      4 H1         -1.0020   -4.5560    5.8470 hc        1 MOL      0.061379
      5 H2          0.4040   -5.6450    5.7790 hc        1 MOL      0.061379
      6 H3          0.4980   -4.1250    6.7000 hc        1 MOL      0.061379
      7 N1          1.0460   -4.5550    3.4880 n         1 MOL     -0.437421
      8 C3          1.6610   -4.1150    2.2120 c3        1 MOL      0.020544
      9 C4          1.5030   -5.1560    1.1160 c         1 MOL      0.605264
     10 O2          1.4250   -6.3020    1.4360 o         1 MOL     -0.572586
     11 C5          3.1180   -3.8440    2.5610 c3        1 MOL     -0.218316
     12 C6          3.8710   -3.4520    1.2620 c         1 MOL      0.706517
     13 O3          4.9050   -4.0350    0.9640 o         1 MOL     -0.676693
     14 O4          3.3600   -2.5330    0.5720 o         1 MOL     -0.676693
     15 H4          0.7600   -5.5180    3.3850 hn        1 MOL      0.254085
     16 H5          1.2720   -3.1460    1.8980 h1        1 MOL      0.011061
     17 H6          3.5290   -4.7480    3.0090 hc        1 MOL      0.041819
     18 H7          3.3390   -3.1500    3.3750 hc        1 MOL      0.041819
     19 N2          1.3980   -4.7350   -0.1370 n         1 MOL     -0.243840
     20 C7          1.2240   -5.5720   -1.3690 c3        1 MOL     -0.331914
     21 C8          2.0030   -5.0750   -2.5880 c         1 MOL      0.534312
     22 O5          1.9540   -5.5910   -3.7230 o         1 MOL     -0.595804
     23 C9         -0.2790   -5.7710   -1.7240 c3        1 MOL      0.365354
     24 C10        -1.0220   -4.4090   -1.8370 c3        1 MOL     -0.045038
     25 C11        -1.0000   -6.5120   -0.6440 c3        1 MOL     -0.387141
     26 C12        -2.2540   -4.5430   -2.7850 c3        1 MOL     -0.335455
     27 H8          1.4070   -3.7250   -0.2010 hn        1 MOL      0.256592
     28 H9          1.7160   -6.5250   -1.1930 h1        1 MOL      0.153025
     29 H10        -0.2790   -6.2690   -2.6970 hc        1 MOL     -0.031555
     30 H11        -0.3320   -3.6860   -2.2740 hc        1 MOL      0.072087
     31 H12        -1.3150   -3.9950   -0.8770 hc        1 MOL      0.072087
     32 H13        -1.9220   -6.9700   -1.0000 hc        1 MOL      0.072205
     33 H14        -0.3180   -7.3420   -0.4480 hc        1 MOL      0.072205
     34 H15        -1.1060   -6.0110    0.3150 hc        1 MOL      0.072205
     35 H16        -3.0510   -5.1420   -2.3590 hc        1 MOL      0.076740
     36 H17        -2.6560   -3.5800   -3.0820 hc        1 MOL      0.076740
     37 H18        -2.0460   -5.1410   -3.6710 hc        1 MOL      0.076740
     38 N3          2.7990   -4.0590   -2.4110 n         1 MOL     -0.335085
     39 C13         3.5920   -3.4670   -3.4740 c3        1 MOL      0.228321
     40 C14         5.0110   -3.1540   -3.0420 c         1 MOL      0.312156
     41 O6          5.8970   -3.2950   -3.8840 o         1 MOL     -0.545417
     42 C15         2.9350   -2.2900   -4.0690 c3        1 MOL     -0.314039
     43 C16         2.4570   -1.2770   -3.0400 c         1 MOL      0.811334
     44 O7          2.9410   -1.3010   -1.9320 o         1 MOL     -0.725871
     45 O8          1.6660   -0.3970   -3.3870 o         1 MOL     -0.725871
     46 H19         2.7310   -3.5850   -1.5190 hn        1 MOL      0.186286
     47 H20         3.7490   -4.1930   -4.2770 h1        1 MOL      0.056284
     48 H21         2.1620   -2.6740   -4.7340 hc        1 MOL      0.071731
     49 H22         3.6100   -1.7830   -4.7590 hc        1 MOL      0.071731
     50 N4          5.2660   -2.8550   -1.7540 n         1 MOL     -0.156195
     51 C17         6.7030   -2.5480   -1.4020 c3        1 MOL     -0.181708
     52 C18         7.2930   -1.1750   -1.7020 c         1 MOL      0.421136
     53 O9          8.5300   -0.9660   -1.7310 o         1 MOL     -0.593971
     54 H23         4.5500   -2.7920   -1.0470 hn        1 MOL      0.191186
     55 H24         7.3450   -3.2880   -1.8910 h1        1 MOL      0.106232
     56 H25         6.8340   -2.6490   -0.3270 h1        1 MOL      0.106232
     57 N5          6.3940   -0.2100   -1.8780 n         1 MOL     -0.055346
     58 C19         6.7550    1.2030   -2.1110 c3        1 MOL     -0.142047
     59 C20         7.2160    1.9700   -0.8550 c         1 MOL      0.519691
     60 O10         7.7910    3.0310   -0.9420 o         1 MOL     -0.549363
     61 C21         5.7170    2.0110   -2.7830 c3        1 MOL     -0.209006
     62 C22         4.2910    1.8540   -2.1780 c         1 MOL      0.795797
     63 O11         4.1410    1.2150   -1.1010 o         1 MOL     -0.678333
     64 O12         3.4730    2.5520   -2.7970 o         1 MOL     -0.678333
     65 H26         5.4070   -0.4040   -1.8380 hn        1 MOL      0.147399
     66 H27         7.6910    1.2430   -2.6800 h1        1 MOL      0.115540
     67 H28         5.6690    1.7350   -3.8360 hc        1 MOL      0.061042
     68 H29         5.9200    3.0690   -2.6710 hc        1 MOL      0.061042
     69 N6          6.9590    1.4870    0.3880 n         1 MOL     -0.373317
     70 C23         7.1240    2.2970    1.6270 c3        1 MOL     -0.144975
     71 C24         6.0270    3.3380    1.8520 c         1 MOL      0.507846
     72 O13         6.1990    4.2580    2.6380 o         1 MOL     -0.595257
     73 H30         6.6130    0.5360    0.4270 hn        1 MOL      0.278862
     74 H31         8.1070    2.7560    1.7130 h1        1 MOL      0.094754
     75 H32         7.0000    1.6210    2.4750 h1        1 MOL      0.094754
     76 N7          4.9150    3.1980    1.1730 n         1 MOL     -0.171206
     77 C25         3.7000    4.0120    1.4620 c3        1 MOL      0.010644
     78 C26         2.4700    3.1540    1.7560 c         1 MOL      0.405839
     79 O14         2.5900    1.9310    1.6400 o         1 MOL     -0.459233
     80 C27         3.4300    5.0240    0.2740 c3        1 MOL      0.126408
     81 C28         4.6480    5.8220   -0.2820 c3        1 MOL     -0.284221
     82 C29         4.4560    7.1970   -0.7990 c         1 MOL      0.704824
     83 N8          5.4480    7.7890   -1.3460 n         1 MOL     -0.757721
     84 O15         3.3750    7.7850   -0.8610 o         1 MOL     -0.586979
     85 H33         4.7630    2.3640    0.6240 hn        1 MOL      0.108611
     86 H34         3.8910    4.6740    2.3070 h1        1 MOL      0.035949
     87 H35         2.7470    5.8360    0.5480 hc        1 MOL     -0.007849
     88 H36         2.9770    4.4180   -0.5010 hc        1 MOL     -0.007849
     89 H37         5.1040    5.1700   -1.0250 hc        1 MOL      0.088075
     90 H38         5.3000    5.9880    0.5680 hc        1 MOL      0.088075
     91 H39         6.3500    7.4030   -1.1060 hn        1 MOL      0.338792
     92 H40         5.3300    8.6830   -1.8050 hn        1 MOL      0.338792
     93 N9          1.3840    3.7340    2.1920 n         1 MOL     -0.416707
     94 C30         0.1090    3.1550    2.4940 c3        1 MOL     -0.011862
     95 C31        -0.9470    3.4970    1.4310 c         1 MOL      0.514524
     96 O16        -1.3500    4.6310    1.3480 o         1 MOL     -0.590894
     97 C32        -0.4490    3.4760    3.9520 c3        1 MOL      0.248295
     98 C33        -1.8710    2.9610    4.1880 c3        1 MOL     -0.241770
     99 C34         0.5480    2.8390    4.9240 c3        1 MOL     -0.241770
    100 H41         1.5440    4.6670    2.5250 hn        1 MOL      0.282810
    101 H42         0.2260    2.0740    2.5020 h1        1 MOL      0.142485
    102 H43        -0.4360    4.5590    4.1380 hc        1 MOL     -0.026911
    103 H44        -1.8100    1.8750    4.0960 hc        1 MOL      0.045332
    104 H45        -2.2550    3.2030    5.1750 hc        1 MOL      0.045332
    105 H46        -2.5410    3.4430    3.4720 hc        1 MOL      0.045332
    106 H47         0.5580    1.7590    4.7900 hc        1 MOL      0.045332
    107 H48         1.5790    3.0050    4.5920 hc        1 MOL      0.045332
    108 H49         0.5130    3.1940    5.9520 hc        1 MOL      0.045332
    109 N10        -1.4660    2.5080    0.7270 n         1 MOL     -0.297614
    110 C35        -2.6350    2.6000   -0.2060 c3        1 MOL      0.088325
    111 C36        -3.9030    2.4960    0.6310 c         1 MOL      0.268957
    112 O17        -3.8690    2.0250    1.7470 o         1 MOL     -0.388303
    113 C37        -2.4690    1.4060   -1.2140 c3        1 MOL     -0.236736
    114 C38        -3.5250    1.4780   -2.2820 c         1 MOL      0.756909
    115 N11        -3.7480    2.6100   -2.9450 n         1 MOL     -0.792484
    116 O18        -4.2760    0.5430   -2.5090 o         1 MOL     -0.609694
    117 H50        -1.2290    1.5340    0.9040 hn        1 MOL      0.219471
    118 H51        -2.6140    3.5320   -0.7680 h1        1 MOL      0.072310
    119 H52        -2.5800    0.4590   -0.6950 hc        1 MOL      0.110533
    120 H53        -1.4700    1.5390   -1.6260 hc        1 MOL      0.110533
    121 H54        -3.2760    3.4810   -2.7500 hn        1 MOL      0.337937
    122 H55        -4.4960    2.5370   -3.6250 hn        1 MOL      0.337937
    123 N12        -5.0370    2.8600    0.0620 n         1 MOL     -0.139685
    124 C39        -6.3890    2.5630    0.6150 c3        1 MOL      0.142626
    125 C40        -6.6980    1.0540    0.8090 c         1 MOL      0.224115
    126 O19        -7.2660    0.7270    1.8010 o         1 MOL     -0.496181
    127 C41        -7.5180    3.2390   -0.2540 c3        1 MOL     -0.183956
    128 C42        -7.3540    3.0810   -1.7790 ca        1 MOL     -0.109652
    129 C43        -6.6410    4.0670   -2.5000 ca        1 MOL      0.071497
    130 C44        -7.9740    2.0240   -2.4800 ca        1 MOL      0.071497
    131 C45        -6.5540    4.0250   -3.9190 ca        1 MOL     -0.503922
    132 C46        -7.7810    1.8610   -3.8530 ca        1 MOL     -0.503922
    133 C47        -7.1230    2.8890   -4.6080 ca        1 MOL      0.533230
    134 O20        -7.1100    2.8220   -6.0090 oh        1 MOL     -0.499475
    135 H56        -5.0160    3.3380   -0.8280 hn        1 MOL      0.061923
    136 H57        -6.4340    3.0690    1.5750 h1        1 MOL      0.055363
    137 H58        -7.4980    4.3100   -0.0370 hc        1 MOL      0.074318
    138 H59        -8.4820    2.8270    0.0280 hc        1 MOL      0.074318
    139 H60        -6.2200    4.8940   -1.9440 ha        1 MOL      0.086385
    140 H61        -8.5090    1.3010   -1.8820 ha        1 MOL      0.086385
    141 H62        -6.1350    4.8150   -4.5180 ha        1 MOL      0.188108
    142 H63        -8.2270    1.0360   -4.3930 ha        1 MOL      0.188108
    143 H64        -6.4740    3.4210   -6.4050 ho        1 MOL      0.329228
    144 N13        -6.2560    0.1820   -0.1270 n         1 MOL      0.113291
    145 C48        -6.4450   -1.3090    0.1730 c3        1 MOL     -0.200629
    146 C49        -5.6020   -1.8340    1.3710 c         1 MOL      0.379980
    147 O21        -5.9140   -2.8510    2.0300 o         1 MOL     -0.524899
    148 C50        -6.0680   -2.1400   -1.1380 c3        1 MOL      0.054833
    149 C51        -7.1070   -1.8160   -2.2630 c3        1 MOL     -0.223335
    150 C52        -8.5560   -2.0690   -1.8260 c         1 MOL      0.672866
    151 O22        -9.3300   -1.0920   -1.6690 o         1 MOL     -0.710751
    152 O23        -8.9620   -3.2480   -1.5060 o         1 MOL     -0.710751
    153 H65        -5.7970    0.5670   -0.9460 hn        1 MOL      0.252665
    154 H66        -7.4720   -1.4520    0.5270 h1        1 MOL      0.175306
    155 H67        -6.0570   -3.1820   -0.8230 hc        1 MOL      0.014374
    156 H68        -5.0940   -1.8990   -1.5460 hc        1 MOL      0.014374
    157 H69        -6.9310   -2.6340   -2.9550 hc        1 MOL      0.041957
    158 H70        -6.9850   -0.8130   -2.6820 hc        1 MOL      0.041957
    159 N14        -4.5100   -1.1840    1.7080 n         1 MOL     -0.040572
    160 C53        -3.6330   -1.6570    2.7530 c3        1 MOL     -0.089327
    161 C54        -4.0310   -1.0680    4.1490 c         1 MOL      0.426206
    162 O24        -3.8310   -1.6700    5.1860 o         1 MOL     -0.537914
    163 C55        -2.2000   -1.3140    2.3890 c3        1 MOL      0.094045
    164 C56        -1.7160   -1.8680    1.0270 c3        1 MOL     -0.055070
    165 C57        -0.3670   -1.2660    0.5630 c         1 MOL      0.855645
    166 O25         0.4500   -2.0180   -0.0240 o         1 MOL     -0.777307
    167 O26        -0.0460   -0.0810    0.8200 o         1 MOL     -0.777307
    168 H71        -4.3500   -0.2990    1.2520 hn        1 MOL     -0.109647
    169 H72        -3.7060   -2.7430    2.8200 h1        1 MOL      0.091478
    170 H73        -1.5800   -1.7470    3.1700 hc        1 MOL     -0.006793
    171 H74        -2.0560   -0.2360    2.4460 hc        1 MOL     -0.006793
    172 H75        -2.3630   -1.5350    0.2180 hc        1 MOL      0.002628
    173 H76        -1.6330   -2.9610    1.0410 hc        1 MOL      0.002628
    174 N15        -4.4990    0.2170    4.0780 n         1 MOL     -0.016152
    175 C58        -5.0180    0.9800    5.1640 c3        1 MOL     -0.236564
    176 H77        -5.7100    0.3660    5.7410 h1        1 MOL      0.076310
    177 H78        -4.1990    1.3040    5.8060 h1        1 MOL      0.076310
    178 H79        -5.5440    1.8530    4.7770 h1        1 MOL      0.076310
    179 H80        -4.6640    0.5630    3.1410 hn        1 MOL      0.140825
    180 Ca1         2.5450   -0.2200    0.3340 Ca        1 MOL      1.714987
    181 O27         1.9810   -0.7110    2.9760 oh        1 MOL     -0.922836
    182 O28         1.1930    1.3830   -1.6050 oh        1 MOL     -0.922836
    183 H81         1.4480   -1.4140    3.3580 ho        1 MOL      0.430631
    184 H82         1.3110    0.7030   -2.2730 ho        1 MOL      0.430631
    185 H83         2.4690   -0.3490    3.7220 ho        1 MOL      0.430631
    186 H84         1.8790    2.0310   -1.7890 ho        1 MOL      0.430631
    187 O29         4.7640   -0.1140    1.9350 oh        1 MOL     -0.922836
    188 H85         5.6230   -0.5140    2.0600 ho        1 MOL      0.430631
    189 H86         4.4550    0.0760    2.8230 ho        1 MOL      0.430631
@<TRIPOS>BOND
     1    1    2 1   
     2    1    4 1   
     3    1    5 1   
     4    1    6 1   
     5    2    3 2   
     6    2    7 1   
     7    7    8 1   
     8    7   15 1   
     9    8    9 1   
    10    8   11 1   
    11    8   16 1   
    12    9   10 2   
    13    9   19 1   
    14   11   12 1   
    15   11   17 1   
    16   11   18 1   
    17   12   13 1   
    18   12   14 1   
    19   19   20 1   
    20   19   27 1   
    21   20   21 1   
    22   20   23 1   
    23   20   28 1   
    24   21   22 2   
    25   21   38 1   
    26   23   24 1   
    27   23   25 1   
    28   23   29 1   
    29   24   26 1   
    30   24   30 1   
    31   24   31 1   
    32   25   32 1   
    33   25   33 1   
    34   25   34 1   
    35   26   35 1   
    36   26   36 1   
    37   26   37 1   
    38   38   39 1   
    39   38   46 1   
    40   39   40 1   
    41   39   42 1   
    42   39   47 1   
    43   40   41 2   
    44   40   50 1   
    45   42   43 1   
    46   42   48 1   
    47   42   49 1   
    48   43   44 1   
    49   43   45 1   
    50   50   51 1   
    51   50   54 1   
    52   51   52 1   
    53   51   55 1   
    54   51   56 1   
    55   52   53 2   
    56   52   57 1   
    57   57   58 1   
    58   57   65 1   
    59   58   59 1   
    60   58   61 1   
    61   58   66 1   
    62   59   60 2   
    63   59   69 1   
    64   61   62 1   
    65   61   67 1   
    66   61   68 1   
    67   62   63 1   
    68   62   64 1   
    69   69   70 1   
    70   69   73 1   
    71   70   71 1   
    72   70   74 1   
    73   70   75 1   
    74   71   72 2   
    75   71   76 1   
    76   76   77 1   
    77   76   85 1   
    78   77   78 1   
    79   77   80 1   
    80   77   86 1   
    81   78   79 2   
    82   78   93 1   
    83   80   81 1   
    84   80   87 1   
    85   80   88 1   
    86   81   82 1   
    87   81   89 1   
    88   81   90 1   
    89   82   83 1   
    90   82   84 2   
    91   83   91 1   
    92   83   92 1   
    93   93   94 1   
    94   93  100 1   
    95   94   95 1   
    96   94   97 1   
    97   94  101 1   
    98   95   96 2   
    99   95  109 1   
   100   97   98 1   
   101   97   99 1   
   102   97  102 1   
   103   98  103 1   
   104   98  104 1   
   105   98  105 1   
   106   99  106 1   
   107   99  107 1   
   108   99  108 1   
   109  109  110 1   
   110  109  117 1   
   111  110  111 1   
   112  110  113 1   
   113  110  118 1   
   114  111  112 2   
   115  111  123 1   
   116  113  114 1   
   117  113  119 1   
   118  113  120 1   
   119  114  115 1   
   120  114  116 2   
   121  115  121 1   
   122  115  122 1   
   123  123  124 1   
   124  123  135 1   
   125  124  125 1   
   126  124  127 1   
   127  124  136 1   
   128  125  126 2   
   129  125  144 1   
   130  127  128 1   
   131  127  137 1   
   132  127  138 1   
   133  128  129 ar  
   134  128  130 ar  
   135  129  131 ar  
   136  129  139 1   
   137  130  132 ar  
   138  130  140 1   
   139  131  133 ar  
   140  131  141 1   
   141  132  133 ar  
   142  132  142 1   
   143  133  134 1   
   144  134  143 1   
   145  144  145 1   
   146  144  153 1   
   147  145  146 1   
   148  145  148 1   
   149  145  154 1   
   150  146  147 2   
   151  146  159 1   
   152  148  149 1   
   153  148  155 1   
   154  148  156 1   
   155  149  150 1   
   156  149  157 1   
   157  149  158 1   
   158  150  151 1   
   159  150  152 1   
   160  159  160 1   
   161  159  168 1   
   162  160  161 1   
   163  160  163 1   
   164  160  169 1   
   165  161  162 2   
   166  161  174 1   
   167  163  164 1   
   168  163  170 1   
   169  163  171 1   
   170  164  165 1   
   171  164  172 1   
   172  164  173 1   
   173  165  166 1   
   174  165  167 1   
   175  174  175 1   
   176  174  179 1   
   177  175  176 1   
   178  175  177 1   
   179  175  178 1   
   180  181  183 1   
   181  181  185 1   
   182  182  184 1   
   183  182  186 1   
   184  187  188 1   
   185  187  189 1   
@<TRIPOS>SUBSTRUCTURE
     1 MOL         1 TEMP              0 ****  ****    0 ROOT
