@<TRIPOS>MOLECULE
MOL
  189   185     1     0     0
SMALL
resp


@<TRIPOS>ATOM
      1 C1          0.3570    2.4110    5.6560 c3        1 MOL     -0.365498
      2 C2         -0.1030    2.4480    4.1660 c         1 MOL      0.704392
      3 O1          0.6680    2.6390    3.2460 o         1 MOL     -0.610711
      4 H1          1.4350    2.2570    5.6990 hc        1 MOL      0.097422
      5 H2          0.1060    3.3560    6.1380 hc        1 MOL      0.097422
      6 H3         -0.1470    1.5940    6.1720 hc        1 MOL      0.097422
      7 N1         -1.3840    2.3240    3.8800 n         1 MOL     -0.611450
      8 C3         -1.9310    1.9740    2.5830 c3        1 MOL      0.395645
      9 C4         -2.3190    3.1680    1.7810 c         1 MOL      0.241790
     10 O2         -3.4300    3.7370    1.8880 o         1 MOL     -0.479579
     11 C5         -3.0030    0.9200    2.8100 c3        1 MOL     -0.304274
     12 C6         -3.7880    0.6550    1.5530 c         1 MOL      0.783264
     13 O3         -4.9480    0.3090    1.6290 o         1 MOL     -0.677221
     14 O4         -3.1720    0.6070    0.4990 o         1 MOL     -0.677221
     15 H4         -2.0860    2.4180    4.6000 hn        1 MOL      0.316779
     16 H5         -1.1410    1.4270    2.0570 h1        1 MOL      0.000312
     17 H6         -3.6280    1.2170    3.6480 hc        1 MOL      0.053844
     18 H7         -2.5400   -0.0230    3.1040 hc        1 MOL      0.053844
     19 N2         -1.3150    3.7480    1.1250 n         1 MOL     -0.020046
     20 C7         -1.2820    4.9810    0.4520 c3        1 MOL     -0.007325
     21 C8         -2.1830    5.1110   -0.7290 c         1 MOL      0.509232
     22 O5         -2.3390    6.1520   -1.2760 o         1 MOL     -0.589812
     23 C9          0.1380    5.4930    0.1650 c3        1 MOL     -0.105353
     24 C10         1.0370    5.8310    1.3510 c3        1 MOL      0.161524
     25 C11         0.4900    6.8860    2.2980 c3        1 MOL     -0.010918
     26 C12         1.5920    7.4310    3.2240 c3        1 MOL     -0.048987
     27 N3          2.1960    6.3830    4.0920 n4        1 MOL     -0.404212
     28 H8         -0.4700    3.1930    1.1350 hn        1 MOL      0.125186
     29 H9         -1.8000    5.6160    1.1640 h1        1 MOL      0.036917
     30 H10        -0.0010    6.3690   -0.4660 hc        1 MOL      0.046713
     31 H11         0.6280    4.7310   -0.4340 hc        1 MOL      0.046713
     32 H12         1.9980    6.1510    0.9360 hc        1 MOL     -0.042548
     33 H13         1.0080    4.9840    2.0250 hc        1 MOL     -0.042548
     34 H14        -0.2490    6.3760    2.9210 hc        1 MOL      0.031034
     35 H15        -0.0290    7.6760    1.7560 hc        1 MOL      0.031034
     36 H16         1.2130    8.2780    3.8110 hx        1 MOL      0.101709
     37 H17         2.3440    7.8700    2.5700 hx        1 MOL      0.101709
     38 H18         2.4010    5.5600    3.5450 hn        1 MOL      0.346411
     39 H19         3.0170    6.8220    4.4790 hn        1 MOL      0.346411
     40 H20         1.5480    6.1330    4.8230 hn        1 MOL      0.346411
     41 N4         -2.7500    4.0050   -1.1520 n         1 MOL     -0.105161
     42 C13        -3.5820    3.9200   -2.3510 c3        1 MOL      0.066513
     43 C14        -4.9320    3.2090   -2.0090 c         1 MOL      0.360265
     44 O6         -5.8460    3.2350   -2.8550 o         1 MOL     -0.517714
     45 C15        -2.8540    3.3330   -3.5870 c3        1 MOL     -0.205305
     46 C16        -2.2060    1.9830   -3.4280 c         1 MOL      0.804129
     47 O7         -1.2180    1.7510   -4.1350 o         1 MOL     -0.745957
     48 O8         -2.4350    1.2160   -2.4820 o         1 MOL     -0.745957
     49 H21        -2.6930    3.1890   -0.5600 hn        1 MOL     -0.114929
     50 H22        -3.9240    4.8860   -2.7190 h1        1 MOL      0.088682
     51 H23        -2.1330    4.0370   -4.0050 hc        1 MOL      0.054640
     52 H24        -3.5360    3.3240   -4.4450 hc        1 MOL      0.054640
     53 N5         -5.1000    2.5840   -0.8070 n         1 MOL     -0.144322
     54 C17        -6.4620    2.2560   -0.2490 c3        1 MOL     -0.205417
     55 C18        -7.0300    0.9810   -0.8620 c         1 MOL      0.507231
     56 O9         -8.2800    0.8140   -0.7330 o         1 MOL     -0.591229
     57 H25        -4.3000    2.3480   -0.2480 hn        1 MOL      0.147720
     58 H26        -7.1590    3.0610   -0.4780 h1        1 MOL      0.127616
     59 H27        -6.4870    2.1610    0.8400 h1        1 MOL      0.127616
     60 N6         -6.2750    0.1180   -1.5410 n         1 MOL     -0.277223
     61 C19        -6.7180   -1.1750   -1.9870 c3        1 MOL      0.008823
     62 C20        -6.9450   -2.1540   -0.9140 c         1 MOL      0.466293
     63 O10        -7.4460   -3.2100   -1.2310 o         1 MOL     -0.554356
     64 C21        -5.7390   -1.6520   -3.0360 c3        1 MOL     -0.214586
     65 C22        -4.3260   -1.7110   -2.5140 c         1 MOL      0.769285
     66 O11        -3.3110   -1.6870   -3.2680 o         1 MOL     -0.754207
     67 O12        -4.1120   -1.7810   -1.2830 o         1 MOL     -0.754207
     68 H28        -5.2940    0.2960   -1.4010 hn        1 MOL      0.230196
     69 H29        -7.7120   -1.1210   -2.4280 h1        1 MOL      0.113408
     70 H30        -5.8040   -0.9690   -3.8860 hc        1 MOL      0.068620
     71 H31        -6.0730   -2.6520   -3.3340 hc        1 MOL      0.068620
     72 N7         -6.5390   -1.9740    0.3550 n         1 MOL     -0.198847
     73 C23        -6.7800   -2.9120    1.4820 c3        1 MOL     -0.344386
     74 C24        -5.7570   -3.9830    1.5280 c         1 MOL      0.604207
     75 O13        -6.0060   -5.0770    2.0120 o         1 MOL     -0.539233
     76 H32        -5.9080   -1.2130    0.5690 hn        1 MOL      0.230650
     77 H33        -7.8000   -3.2840    1.3400 h1        1 MOL      0.152677
     78 H34        -6.7410   -2.3450    2.4200 h1        1 MOL      0.152677
     79 N8         -4.4930   -3.6260    1.0250 n         1 MOL     -0.357842
     80 C25        -3.2870   -4.4120    1.0300 c3        1 MOL     -0.215063
     81 C26        -2.1220   -3.5260    1.2860 c         1 MOL      0.671253
     82 O14        -2.1540   -2.4030    0.8520 o         1 MOL     -0.617621
     83 C27        -3.0880   -5.2190   -0.2330 c3        1 MOL      0.465595
     84 C28        -3.9600   -6.3910   -0.5240 c3        1 MOL     -0.435718
     85 O15        -3.2820   -4.3920   -1.4080 oh        1 MOL     -0.656511
     86 H35        -4.3490   -2.6950    0.6620 hn        1 MOL      0.305063
     87 H36        -3.4290   -5.1190    1.8480 h1        1 MOL      0.098046
     88 H37        -2.1110   -5.7110   -0.2800 h1        1 MOL      0.016589
     89 H38        -3.9980   -3.7660   -1.2960 ho        1 MOL      0.432248
     90 H39        -3.8320   -7.1520    0.2540 hc        1 MOL      0.113964
     91 H40        -5.0080   -6.0840   -0.5860 hc        1 MOL      0.113964
     92 H41        -3.7750   -6.7610   -1.5310 hc        1 MOL      0.113964
     93 N9         -0.9540   -4.0730    1.7810 n         1 MOL     -0.624942
     94 C29         0.3110   -3.3120    1.9590 c3        1 MOL      0.250959
     95 C30         1.4680   -3.8240    1.0680 c         1 MOL      0.402059
     96 O16         1.8360   -4.9880    1.1330 o         1 MOL     -0.549629
     97 C31         0.6730   -2.9500    3.4210 c3        1 MOL      0.326097
     98 C32        -0.5230   -2.5760    4.3190 c3        1 MOL      0.061342
     99 C33         1.6700   -1.7610    3.3600 c3        1 MOL     -0.607229
    100 C34        -0.3950   -2.8060    5.7990 c3        1 MOL     -0.262554
    101 H42        -1.0340   -5.0370    2.0770 hn        1 MOL      0.292595
    102 H43         0.0870   -2.2990    1.6250 h1        1 MOL     -0.064040
    103 H44         1.1130   -3.8740    3.7910 hc        1 MOL     -0.079898
    104 H45        -1.3170   -3.2160    3.9600 hc        1 MOL      0.016087
    105 H46        -0.6800   -1.5390    4.0360 hc        1 MOL      0.016087
    106 H47         1.9000   -1.4990    4.4000 hc        1 MOL      0.126929
    107 H48         2.5790   -2.0600    2.8470 hc        1 MOL      0.126929
    108 H49         1.1330   -0.8920    2.9830 hc        1 MOL      0.126929
    109 H50        -1.2920   -2.5240    6.3420 hc        1 MOL      0.060292
    110 H51        -0.1320   -3.8360    6.0300 hc        1 MOL      0.060292
    111 H52         0.4910   -2.3010    6.1750 hc        1 MOL      0.060292
    112 N10         1.9880   -2.9780    0.2230 n         1 MOL     -0.073502
    113 C35         3.1480   -3.2330   -0.6350 c3        1 MOL     -0.070100
    114 C36         4.4520   -3.1200    0.0990 c         1 MOL      0.387673
    115 O17         4.6130   -2.3450    1.0370 o         1 MOL     -0.356741
    116 C37         3.2920   -2.2640   -1.8940 c3        1 MOL      0.150816
    117 C38         2.2320   -2.3950   -2.9400 c3        1 MOL     -0.585916
    118 O18         3.1290   -0.8430   -1.4590 oh        1 MOL     -0.311884
    119 H53         1.6300   -2.0320    0.1420 hn        1 MOL      0.133218
    120 H54         3.1550   -4.2580   -1.0070 h1        1 MOL      0.083994
    121 H55         4.2600   -2.4750   -2.3450 h1        1 MOL      0.113952
    122 H56         2.1840   -0.6730   -1.4460 ho        1 MOL      0.303953
    123 H57         2.2800   -3.3640   -3.4340 hc        1 MOL      0.167202
    124 H58         1.2250   -2.4360   -2.5210 hc        1 MOL      0.167202
    125 H59         2.2840   -1.5260   -3.5880 hc        1 MOL      0.167202
    126 N11         5.5510   -3.5800   -0.5730 n         1 MOL     -0.335617
    127 C39         7.0200   -3.2240   -0.4000 c3        1 MOL     -0.139334
    128 C40         7.2960   -1.7650   -0.6050 c         1 MOL      0.431479
    129 O19         8.0550   -1.1670    0.1490 o         1 MOL     -0.482157
    130 C41         7.9440   -4.0710   -1.2610 c3        1 MOL      0.146157
    131 C42         8.1450   -5.4810   -0.6050 c3        1 MOL     -0.334365
    132 O20         7.4110   -4.3230   -2.6080 oh        1 MOL     -0.648680
    133 H60         5.2440   -4.1790   -1.3220 hn        1 MOL      0.268887
    134 H61         7.2580   -3.4940    0.6270 h1        1 MOL      0.176819
    135 H62         8.9300   -3.6030   -1.3520 h1        1 MOL      0.102654
    136 H63         8.0130   -4.9030   -3.0850 ho        1 MOL      0.439966
    137 H64         7.2150   -6.0480   -0.7070 hc        1 MOL      0.103032
    138 H65         8.8880   -6.1180   -1.0890 hc        1 MOL      0.103032
    139 H66         8.2820   -5.3850    0.4690 hc        1 MOL      0.103032
    140 N12         6.6570   -1.1340   -1.5950 n         1 MOL     -0.213435
    141 C43         6.6740    0.3190   -1.7990 c3        1 MOL     -0.239603
    142 C44         6.1310    1.0630   -0.5370 c         1 MOL      0.425328
    143 O21         6.8150    1.9170   -0.0530 o         1 MOL     -0.528730
    144 C45         6.0040    0.7960   -3.1180 c3        1 MOL      0.056923
    145 C46         6.0990    2.3410   -3.2540 c3        1 MOL     -0.026700
    146 C47         5.1780    2.8030   -4.3170 c3        1 MOL      0.026277
    147 C48         5.3290    4.3200   -4.4660 c3        1 MOL      0.043853
    148 N13         4.1450    5.0370   -5.0520 n4        1 MOL     -0.311939
    149 H67         6.0540   -1.7350   -2.1320 hn        1 MOL      0.209759
    150 H68         7.7500    0.4250   -1.9290 h1        1 MOL      0.159713
    151 H69         4.9690    0.4490   -3.1120 hc        1 MOL      0.012989
    152 H70         6.4140    0.3250   -4.0080 hc        1 MOL      0.012989
    153 H71         7.1240    2.5960   -3.5040 hc        1 MOL      0.031333
    154 H72         5.8980    2.8080   -2.2960 hc        1 MOL      0.031333
    155 H73         4.1660    2.5890   -3.9810 hc        1 MOL      0.024899
    156 H74         5.3920    2.3060   -5.2700 hc        1 MOL      0.024899
    157 H75         6.1520    4.6320   -5.1070 hx        1 MOL      0.072150
    158 H76         5.4160    4.6650   -3.4330 hx        1 MOL      0.072150
    159 H77         4.3730    6.0170   -4.9400 hn        1 MOL      0.316646
    160 H78         3.8980    4.7140   -5.9750 hn        1 MOL      0.316646
    161 H79         3.2720    4.9030   -4.5550 hn        1 MOL      0.316646
    162 N14         4.9490    0.7320   -0.0320 n         1 MOL      0.036024
    163 C49         4.2800    1.3780    1.1430 c3        1 MOL     -0.085030
    164 C50         5.0720    1.1660    2.4710 c         1 MOL      0.484203
    165 O22         5.1450    2.0240    3.3220 o         1 MOL     -0.583659
    166 C51         2.8600    0.6980    1.2630 c3        1 MOL      0.032669
    167 C52         1.9230    1.4970    0.3760 c3        1 MOL      0.233424
    168 C53         0.5840    0.8320    0.0950 c         1 MOL      0.589312
    169 O23        -0.3430    1.4390   -0.5000 o         1 MOL     -0.620415
    170 O24         0.4030   -0.3860    0.1490 o         1 MOL     -0.620415
    171 H80         4.4440   -0.0270   -0.4810 hn        1 MOL     -0.084989
    172 H81         4.2000    2.4490    0.9750 h1        1 MOL      0.034059
    173 H82         2.5260    0.7750    2.2970 hc        1 MOL      0.008612
    174 H83         2.8550   -0.3840    1.1330 hc        1 MOL      0.008612
    175 H84         2.4790    1.6430   -0.5540 hc        1 MOL     -0.106875
    176 H85         1.6360    2.4660    0.7810 hc        1 MOL     -0.106875
    177 N15         5.7020   -0.0180    2.5930 n         1 MOL     -0.083151
    178 C54         6.6730   -0.2450    3.6760 c3        1 MOL     -0.397071
    179 H86         7.6240   -0.5620    3.2490 h1        1 MOL      0.136787
    180 H87         6.8170    0.6790    4.2350 h1        1 MOL      0.136787
    181 H88         6.2990   -1.0210    4.3440 h1        1 MOL      0.136787
    182 H89         5.5450   -0.7500    1.9140 hn        1 MOL      0.152569
    183 Ca1        -1.8120   -0.7570   -1.1050 Ca        1 MOL      1.726837
    184 O25        -0.9500   -3.1150   -1.9080 oh        1 MOL     -0.893291
    185 H90        -1.8250   -3.5000   -1.8970 ho        1 MOL      0.414710
    186 H91        -0.6060   -3.3110   -2.7820 ho        1 MOL      0.414710
    187 O26         0.0830   -0.3540   -3.2890 oh        1 MOL     -0.893291
    188 H92         0.3350   -0.5160   -4.1920 ho        1 MOL      0.414710
    189 H93        -0.5040    0.4030   -3.3330 ho        1 MOL      0.414710
@<TRIPOS>BOND
     1    1    2 1   
     2    1    4 1   
     3    1    5 1   
     4    1    6 1   
     5    2    3 2   
     6    2    7 1   
     7    7    8 1   
     8    7   15 1   
     9    8    9 1   
    10    8   11 1   
    11    8   16 1   
    12    9   10 2   
    13    9   19 1   
    14   11   12 1   
    15   11   17 1   
    16   11   18 1   
    17   12   13 1   
    18   12   14 1   
    19   19   20 1   
    20   19   28 1   
    21   20   21 1   
    22   20   23 1   
    23   20   29 1   
    24   21   22 2   
    25   21   41 1   
    26   23   24 1   
    27   23   30 1   
    28   23   31 1   
    29   24   25 1   
    30   24   32 1   
    31   24   33 1   
    32   25   26 1   
    33   25   34 1   
    34   25   35 1   
    35   26   27 1   
    36   26   36 1   
    37   26   37 1   
    38   27   38 1   
    39   27   39 1   
    40   27   40 1   
    41   41   42 1   
    42   41   49 1   
    43   42   43 1   
    44   42   45 1   
    45   42   50 1   
    46   43   44 2   
    47   43   53 1   
    48   45   46 1   
    49   45   51 1   
    50   45   52 1   
    51   46   47 1   
    52   46   48 1   
    53   53   54 1   
    54   53   57 1   
    55   54   55 1   
    56   54   58 1   
    57   54   59 1   
    58   55   56 2   
    59   55   60 1   
    60   60   61 1   
    61   60   68 1   
    62   61   62 1   
    63   61   64 1   
    64   61   69 1   
    65   62   63 2   
    66   62   72 1   
    67   64   65 1   
    68   64   70 1   
    69   64   71 1   
    70   65   66 1   
    71   65   67 1   
    72   72   73 1   
    73   72   76 1   
    74   73   74 1   
    75   73   77 1   
    76   73   78 1   
    77   74   75 2   
    78   74   79 1   
    79   79   80 1   
    80   79   86 1   
    81   80   81 1   
    82   80   83 1   
    83   80   87 1   
    84   81   82 2   
    85   81   93 1   
    86   83   84 1   
    87   83   85 1   
    88   83   88 1   
    89   84   90 1   
    90   84   91 1   
    91   84   92 1   
    92   85   89 1   
    93   93   94 1   
    94   93  101 1   
    95   94   95 1   
    96   94   97 1   
    97   94  102 1   
    98   95   96 2   
    99   95  112 1   
   100   97   98 1   
   101   97   99 1   
   102   97  103 1   
   103   98  100 1   
   104   98  104 1   
   105   98  105 1   
   106   99  106 1   
   107   99  107 1   
   108   99  108 1   
   109  100  109 1   
   110  100  110 1   
   111  100  111 1   
   112  112  113 1   
   113  112  119 1   
   114  113  114 1   
   115  113  116 1   
   116  113  120 1   
   117  114  115 2   
   118  114  126 1   
   119  116  117 1   
   120  116  118 1   
   121  116  121 1   
   122  117  123 1   
   123  117  124 1   
   124  117  125 1   
   125  118  122 1   
   126  126  127 1   
   127  126  133 1   
   128  127  128 1   
   129  127  130 1   
   130  127  134 1   
   131  128  129 2   
   132  128  140 1   
   133  130  131 1   
   134  130  132 1   
   135  130  135 1   
   136  131  137 1   
   137  131  138 1   
   138  131  139 1   
   139  132  136 1   
   140  140  141 1   
   141  140  149 1   
   142  141  142 1   
   143  141  144 1   
   144  141  150 1   
   145  142  143 2   
   146  142  162 1   
   147  144  145 1   
   148  144  151 1   
   149  144  152 1   
   150  145  146 1   
   151  145  153 1   
   152  145  154 1   
   153  146  147 1   
   154  146  155 1   
   155  146  156 1   
   156  147  148 1   
   157  147  157 1   
   158  147  158 1   
   159  148  159 1   
   160  148  160 1   
   161  148  161 1   
   162  162  163 1   
   163  162  171 1   
   164  163  164 1   
   165  163  166 1   
   166  163  172 1   
   167  164  165 2   
   168  164  177 1   
   169  166  167 1   
   170  166  173 1   
   171  166  174 1   
   172  167  168 1   
   173  167  175 1   
   174  167  176 1   
   175  168  169 1   
   176  168  170 1   
   177  177  178 1   
   178  177  182 1   
   179  178  179 1   
   180  178  180 1   
   181  178  181 1   
   182  184  185 1   
   183  184  186 1   
   184  187  188 1   
   185  187  189 1   
@<TRIPOS>SUBSTRUCTURE
     1 MOL         1 TEMP              0 ****  ****    0 ROOT
