@<TRIPOS>MOLECULE
MOL
  179   176     1     0     0
SMALL
resp


@<TRIPOS>ATOM
      1 C1          2.5910    2.2880    5.1420 c3        1 MOL     -0.350480
      2 C2          1.7800    2.4890    3.8380 c         1 MOL      0.747899
      3 O1          2.3440    2.7510    2.7570 o         1 MOL     -0.654126
      4 H1          3.4700    2.9310    5.1250 hc        1 MOL      0.097407
      5 H2          1.9700    2.5450    6.0000 hc        1 MOL      0.097407
      6 H3          2.9040    1.2470    5.2180 hc        1 MOL      0.097407
      7 N1          0.4420    2.4360    3.9050 n         1 MOL     -0.627157
      8 C3         -0.4270    2.3740    2.7020 c3        1 MOL      0.325714
      9 C4         -0.6350    3.7420    2.0330 c         1 MOL      0.419316
     10 O2         -1.1870    4.7420    2.6160 o         1 MOL     -0.549083
     11 C5         -1.7830    1.7250    3.0390 c3        1 MOL     -0.250509
     12 C6         -2.6700    1.4410    1.8120 c         1 MOL      0.774079
     13 O3         -2.2380    1.6680    0.6650 o         1 MOL     -0.690079
     14 O4         -3.8410    1.0390    1.9350 o         1 MOL     -0.690079
     15 H4          0.0200    2.2390    4.8040 hn        1 MOL      0.326368
     16 H5          0.0300    1.8150    1.8740 h1        1 MOL     -0.030421
     17 H6         -2.2830    2.4330    3.7080 hc        1 MOL      0.055053
     18 H7         -1.5740    0.7490    3.4790 hc        1 MOL      0.055053
     19 N2         -0.0850    3.9490    0.7720 n         1 MOL     -0.069941
     20 C7          0.1660    5.2250    0.1050 c3        1 MOL     -0.102438
     21 C8         -1.1270    5.6830   -0.6830 c         1 MOL      0.518960
     22 O5         -1.5740    6.8070   -0.5120 o         1 MOL     -0.544893
     23 C9          1.4430    5.1730   -0.7660 c3        1 MOL     -0.186833
     24 C10         2.6880    5.1850    0.1300 c3        1 MOL      0.068421
     25 C11         3.8840    5.5590   -0.7590 c3        1 MOL     -0.095240
     26 C12         5.0640    5.9320    0.0840 c3        1 MOL      0.151630
     27 N3          6.0350    6.5910   -0.7730 n4        1 MOL     -0.364457
     28 H8          0.3200    3.0890    0.4330 hn        1 MOL      0.075451
     29 H9          0.2390    6.0830    0.7680 h1        1 MOL      0.073930
     30 H10         1.4790    5.9510   -1.5350 hc        1 MOL      0.094735
     31 H11         1.4590    4.2180   -1.2940 hc        1 MOL      0.094735
     32 H12         2.8080    4.1880    0.5500 hc        1 MOL      0.043412
     33 H13         2.5950    5.9570    0.8850 hc        1 MOL      0.043412
     34 H14         3.5460    6.4130   -1.3480 hc        1 MOL      0.019186
     35 H15         3.9240    4.6770   -1.4010 hc        1 MOL      0.019186
     36 H16         5.5110    5.0550    0.5590 hx        1 MOL      0.056271
     37 H17         4.6890    6.5650    0.8840 hx        1 MOL      0.056271
     38 H18         6.7290    7.0860   -0.2260 hn        1 MOL      0.320142
     39 H19         6.4500    5.9670   -1.4570 hn        1 MOL      0.320142
     40 H20         5.5420    7.3130   -1.2800 hn        1 MOL      0.320142
     41 N4         -1.7650    4.7910   -1.4920 n         1 MOL     -0.411430
     42 C13        -2.9370    5.0590   -2.2750 c3        1 MOL     -0.026669
     43 C14        -4.2270    4.8700   -1.4370 c         1 MOL      0.373194
     44 O6         -5.3210    5.1550   -2.0140 o         1 MOL     -0.530210
     45 C15        -2.9220    4.1610   -3.5270 c3        1 MOL     -0.021249
     46 C16        -2.6450    2.6470   -3.3860 c         1 MOL      0.651237
     47 O7         -3.2360    1.8300   -4.1460 o         1 MOL     -0.665300
     48 O8         -1.7210    2.3070   -2.5580 o         1 MOL     -0.665300
     49 H21        -1.3880    3.8600   -1.5600 hn        1 MOL      0.204080
     50 H22        -3.0460    6.1130   -2.5430 h1        1 MOL      0.113231
     51 H23        -2.1510    4.5860   -4.1810 hc        1 MOL      0.016886
     52 H24        -3.7300    4.4300   -4.2000 hc        1 MOL      0.016886
     53 N5         -4.1410    4.2450   -0.2820 n         1 MOL     -0.002175
     54 C17        -5.1620    4.0980    0.7780 c3        1 MOL     -0.257685
     55 C18        -6.1540    3.0870    0.2800 c         1 MOL      0.564361
     56 O9         -7.3510    3.3340    0.1330 o         1 MOL     -0.584046
     57 H25        -3.2060    3.9740   -0.0140 hn        1 MOL      0.148831
     58 H26        -5.6720    5.0420    1.0040 h1        1 MOL      0.122281
     59 H27        -4.7390    3.6850    1.6860 h1        1 MOL      0.122281
     60 N6         -5.7110    1.8900   -0.0160 n         1 MOL     -0.174295
     61 C19        -6.5350    0.8530   -0.6690 c3        1 MOL     -0.132114
     62 C20        -6.8030   -0.3330    0.2750 c         1 MOL      0.312193
     63 O10        -7.5520   -1.2170   -0.0510 o         1 MOL     -0.486821
     64 C21        -6.0970    0.5040   -2.0890 c3        1 MOL     -0.048576
     65 C22        -4.8480   -0.3870   -2.1520 c         1 MOL      0.690242
     66 N7         -4.8490   -1.4070   -2.9310 n         1 MOL     -0.725922
     67 O11        -3.8150   -0.1040   -1.5530 o         1 MOL     -0.753411
     68 H28        -4.7800    1.6510    0.2890 hn        1 MOL      0.064172
     69 H29        -7.4960    1.3250   -0.8870 h1        1 MOL      0.163267
     70 H30        -5.7940    1.4610   -2.5290 hc        1 MOL      0.058522
     71 H31        -6.8630    0.0570   -2.7250 hc        1 MOL      0.058522
     72 H32        -5.6290   -1.5580   -3.5580 hn        1 MOL      0.345568
     73 H33        -4.0860   -2.0670   -2.9990 hn        1 MOL      0.345568
     74 N8         -6.1570   -0.3950    1.4260 n         1 MOL      0.003752
     75 C23        -6.2260   -1.4050    2.4290 c3        1 MOL     -0.365166
     76 C24        -5.2100   -2.5630    2.2500 c         1 MOL      0.662318
     77 O12        -5.4180   -3.6760    2.7280 o         1 MOL     -0.545816
     78 H34        -5.5210    0.3410    1.6930 hn        1 MOL      0.165280
     79 H35        -7.1700   -1.9500    2.4770 h1        1 MOL      0.137422
     80 H36        -5.9930   -0.9330    3.3890 h1        1 MOL      0.137422
     81 N9         -4.1030   -2.2800    1.5860 n         1 MOL     -0.690764
     82 C25        -2.9850   -3.1490    1.3040 c3        1 MOL      0.459294
     83 C26        -1.6360   -2.4700    1.2970 c         1 MOL      0.451270
     84 O13        -1.5530   -1.2440    1.1150 o         1 MOL     -0.593095
     85 C27        -3.2410   -3.7750   -0.0960 c3        1 MOL     -0.130413
     86 C28        -4.4210   -4.6360   -0.2030 ca        1 MOL      0.037596
     87 C29        -4.2620   -6.0520   -0.2790 ca        1 MOL     -0.149694
     88 C30        -5.7080   -4.0560   -0.5000 ca        1 MOL     -0.149694
     89 C31        -5.3960   -6.8620   -0.5300 ca        1 MOL     -0.298168
     90 C32        -6.8270   -4.8760   -0.8460 ca        1 MOL     -0.298168
     91 C33        -6.6680   -6.2750   -0.7650 ca        1 MOL      0.431004
     92 O14        -7.7350   -7.0630   -0.9080 oh        1 MOL     -0.557100
     93 H37        -3.9850   -1.3260    1.2590 hn        1 MOL      0.435487
     94 H38        -2.9190   -3.9310    2.0610 h1        1 MOL     -0.024996
     95 H39        -2.3470   -4.2840   -0.4490 hc        1 MOL      0.004635
     96 H40        -3.4240   -2.8820   -0.6850 hc        1 MOL      0.004635
     97 H41        -3.2970   -6.5020   -0.0670 ha        1 MOL      0.133048
     98 H42        -5.7850   -2.9800   -0.3870 ha        1 MOL      0.133048
     99 H43        -5.2780   -7.9160   -0.6970 ha        1 MOL      0.153372
    100 H44        -7.7620   -4.3590   -0.9940 ha        1 MOL      0.153372
    101 H45        -8.5890   -6.6150   -0.9330 ho        1 MOL      0.414410
    102 N10        -0.5660   -3.3070    1.5630 n         1 MOL     -0.509101
    103 C34         0.8120   -2.9050    1.5450 c3        1 MOL     -0.053367
    104 C35         1.5650   -3.8250    0.5740 c         1 MOL      0.558429
    105 O15         1.5390   -5.0230    0.6720 o         1 MOL     -0.577004
    106 C36         1.4000   -2.8780    2.9700 c3        1 MOL      0.143487
    107 C37         0.5950   -2.0500    4.0140 c3        1 MOL      0.216562
    108 C38         2.7740   -2.0840    2.8800 c3        1 MOL     -0.498136
    109 C39         1.0290   -2.4600    5.4760 c3        1 MOL     -0.329180
    110 H46        -0.7660   -4.2770    1.7480 hn        1 MOL      0.297625
    111 H47         0.8240   -1.8780    1.1690 h1        1 MOL      0.127340
    112 H48         1.6210   -3.8710    3.3720 hc        1 MOL      0.034540
    113 H49        -0.4430   -2.3540    3.9490 hc        1 MOL     -0.029598
    114 H50         0.5640   -0.9660    3.8870 hc        1 MOL     -0.029598
    115 H51         3.4630   -2.6040    2.1930 hc        1 MOL      0.094462
    116 H52         2.5470   -1.0960    2.5080 hc        1 MOL      0.094462
    117 H53         3.2290   -2.0640    3.8710 hc        1 MOL      0.094462
    118 H54         0.5100   -1.9130    6.2670 hc        1 MOL      0.078958
    119 H55         0.9020   -3.5440    5.4770 hc        1 MOL      0.078958
    120 H56         2.0760   -2.2600    5.6840 hc        1 MOL      0.078958
    121 N11         2.3250   -3.2330   -0.2780 n         1 MOL     -0.228037
    122 C40         3.1860   -3.9400   -1.2860 c3        1 MOL      0.192964
    123 C41         4.6460   -3.4970   -1.1040 c         1 MOL      0.126666
    124 O16         5.0140   -2.6750   -0.2680 o         1 MOL     -0.206314
    125 C42         2.7300   -3.4420   -2.6410 c3        1 MOL      0.114482
    126 O17         1.3730   -3.8190   -2.9740 oh        1 MOL     -0.578488
    127 H57         2.3950   -2.2330   -0.1340 hn        1 MOL      0.151870
    128 H58         3.0630   -5.0260   -1.2570 h1        1 MOL      0.085033
    129 H59         3.3960   -3.7920   -3.4240 h1        1 MOL      0.009138
    130 H60         2.9460   -2.3750   -2.6170 h1        1 MOL      0.009138
    131 H61         1.1500   -3.5270   -3.8600 ho        1 MOL      0.393096
    132 N12         5.6160   -4.1700   -1.7440 n         1 MOL     -0.251565
    133 C43         7.0220   -4.1780   -1.3800 c3        1 MOL     -0.064688
    134 C44         7.6830   -2.8110   -1.4400 c         1 MOL      0.667370
    135 O18         8.6230   -2.6050   -0.7210 o         1 MOL     -0.585023
    136 C45         7.8410   -5.2250   -2.1160 c3        1 MOL     -0.433162
    137 H62         5.3020   -4.7040   -2.5420 hn        1 MOL      0.240082
    138 H63         6.9930   -4.5160   -0.3400 h1        1 MOL      0.131240
    139 H64         8.8730   -5.1570   -1.7700 hc        1 MOL      0.145156
    140 H65         7.3570   -6.1910   -1.9550 hc        1 MOL      0.145156
    141 H66         7.9620   -5.0950   -3.1910 hc        1 MOL      0.145156
    142 N13         7.2600   -1.9110   -2.2370 n         1 MOL     -0.452798
    143 C46         7.8940   -0.5830   -2.2530 c3        1 MOL      0.202088
    144 C47         7.4130    0.3420   -1.1330 c         1 MOL      0.315361
    145 O19         8.1150    1.2860   -0.7060 o         1 MOL     -0.496375
    146 C48         7.8530   -0.0290   -3.6590 c3        1 MOL     -0.296777
    147 H67         6.3670   -2.0690   -2.6730 hn        1 MOL      0.199768
    148 H68         8.9570   -0.7360   -2.0580 h1        1 MOL      0.099590
    149 H69         8.3570    0.9260   -3.5300 hc        1 MOL      0.082636
    150 H70         8.4300   -0.6110   -4.3720 hc        1 MOL      0.082636
    151 H71         6.8260    0.2590   -3.8720 hc        1 MOL      0.082636
    152 N14         6.2190    0.0560   -0.6240 n         1 MOL     -0.201301
    153 C49         5.6570    0.7460    0.5280 c3        1 MOL     -0.302974
    154 C50         6.3120    0.2650    1.8410 c         1 MOL      0.491527
    155 O20         6.5550    1.1110    2.7200 o         1 MOL     -0.538685
    156 C51         4.1540    0.3480    0.6590 c3        1 MOL      0.024746
    157 C52         3.4630    0.9170   -0.5740 c3        1 MOL     -0.120637
    158 C53         1.9340    0.8520   -0.5870 c         1 MOL      1.021363
    159 O21         1.3670   -0.2110   -0.4720 o         1 MOL     -0.829838
    160 O22         1.1840    1.8670   -0.7150 o         1 MOL     -0.829838
    161 H72         5.6900   -0.7020   -1.0180 hn        1 MOL      0.291556
    162 H73         5.7650    1.8200    0.4140 h1        1 MOL      0.193564
    163 H74         3.7480    0.8810    1.5150 hc        1 MOL      0.069221
    164 H75         3.9610   -0.7220    0.6540 hc        1 MOL      0.069221
    165 H76         3.7550    0.5410   -1.5520 hc        1 MOL     -0.019395
    166 H77         3.6310    1.9860   -0.6230 hc        1 MOL     -0.019395
    167 N15         6.7330   -1.0190    1.9350 n         1 MOL     -0.032306
    168 C54         7.5830   -1.4500    3.0300 c3        1 MOL     -0.392952
    169 H78         8.4730   -0.8220    3.0670 h1        1 MOL      0.144023
    170 H79         7.0380   -1.3620    3.9700 h1        1 MOL      0.144023
    171 H80         7.8770   -2.4890    2.8750 h1        1 MOL      0.144023
    172 H81         6.3980   -1.6130    1.1860 hn        1 MOL      0.051845
    173 Ca1        -1.0790    0.1960   -1.1990 Ca        1 MOL      1.765196
    174 O23         0.3160    0.2420   -3.6880 oh        1 MOL     -0.874170
    175 H82         0.9890   -0.3370   -4.0480 ho        1 MOL      0.414664
    176 H83        -0.3840    0.2520   -4.3510 ho        1 MOL      0.414664
    177 O24        -1.1050   -2.4240   -1.9720 oh        1 MOL     -0.874170
    178 H84        -0.3110   -2.9020   -2.2060 ho        1 MOL      0.414664
    179 H85        -1.8260   -3.0160   -2.2010 ho        1 MOL      0.414664
@<TRIPOS>BOND
     1    1    2 1   
     2    1    4 1   
     3    1    5 1   
     4    1    6 1   
     5    2    3 2   
     6    2    7 1   
     7    7    8 1   
     8    7   15 1   
     9    8    9 1   
    10    8   11 1   
    11    8   16 1   
    12    9   10 2   
    13    9   19 1   
    14   11   12 1   
    15   11   17 1   
    16   11   18 1   
    17   12   13 1   
    18   12   14 1   
    19   19   20 1   
    20   19   28 1   
    21   20   21 1   
    22   20   23 1   
    23   20   29 1   
    24   21   22 2   
    25   21   41 1   
    26   23   24 1   
    27   23   30 1   
    28   23   31 1   
    29   24   25 1   
    30   24   32 1   
    31   24   33 1   
    32   25   26 1   
    33   25   34 1   
    34   25   35 1   
    35   26   27 1   
    36   26   36 1   
    37   26   37 1   
    38   27   38 1   
    39   27   39 1   
    40   27   40 1   
    41   41   42 1   
    42   41   49 1   
    43   42   43 1   
    44   42   45 1   
    45   42   50 1   
    46   43   44 2   
    47   43   53 1   
    48   45   46 1   
    49   45   51 1   
    50   45   52 1   
    51   46   47 1   
    52   46   48 1   
    53   53   54 1   
    54   53   57 1   
    55   54   55 1   
    56   54   58 1   
    57   54   59 1   
    58   55   56 2   
    59   55   60 1   
    60   60   61 1   
    61   60   68 1   
    62   61   62 1   
    63   61   64 1   
    64   61   69 1   
    65   62   63 2   
    66   62   74 1   
    67   64   65 1   
    68   64   70 1   
    69   64   71 1   
    70   65   66 1   
    71   65   67 2   
    72   66   72 1   
    73   66   73 1   
    74   74   75 1   
    75   74   78 1   
    76   75   76 1   
    77   75   79 1   
    78   75   80 1   
    79   76   77 2   
    80   76   81 1   
    81   81   82 1   
    82   81   93 1   
    83   82   83 1   
    84   82   85 1   
    85   82   94 1   
    86   83   84 2   
    87   83  102 1   
    88   85   86 1   
    89   85   95 1   
    90   85   96 1   
    91   86   87 ar  
    92   86   88 ar  
    93   87   89 ar  
    94   87   97 1   
    95   88   90 ar  
    96   88   98 1   
    97   89   91 ar  
    98   89   99 1   
    99   90   91 ar  
   100   90  100 1   
   101   91   92 1   
   102   92  101 1   
   103  102  103 1   
   104  102  110 1   
   105  103  104 1   
   106  103  106 1   
   107  103  111 1   
   108  104  105 2   
   109  104  121 1   
   110  106  107 1   
   111  106  108 1   
   112  106  112 1   
   113  107  109 1   
   114  107  113 1   
   115  107  114 1   
   116  108  115 1   
   117  108  116 1   
   118  108  117 1   
   119  109  118 1   
   120  109  119 1   
   121  109  120 1   
   122  121  122 1   
   123  121  127 1   
   124  122  123 1   
   125  122  125 1   
   126  122  128 1   
   127  123  124 2   
   128  123  132 1   
   129  125  126 1   
   130  125  129 1   
   131  125  130 1   
   132  126  131 1   
   133  132  133 1   
   134  132  137 1   
   135  133  134 1   
   136  133  136 1   
   137  133  138 1   
   138  134  135 2   
   139  134  142 1   
   140  136  139 1   
   141  136  140 1   
   142  136  141 1   
   143  142  143 1   
   144  142  147 1   
   145  143  144 1   
   146  143  146 1   
   147  143  148 1   
   148  144  145 2   
   149  144  152 1   
   150  146  149 1   
   151  146  150 1   
   152  146  151 1   
   153  152  153 1   
   154  152  161 1   
   155  153  154 1   
   156  153  156 1   
   157  153  162 1   
   158  154  155 2   
   159  154  167 1   
   160  156  157 1   
   161  156  163 1   
   162  156  164 1   
   163  157  158 1   
   164  157  165 1   
   165  157  166 1   
   166  158  159 1   
   167  158  160 1   
   168  167  168 1   
   169  167  172 1   
   170  168  169 1   
   171  168  170 1   
   172  168  171 1   
   173  174  175 1   
   174  174  176 1   
   175  177  178 1   
   176  177  179 1   
@<TRIPOS>SUBSTRUCTURE
     1 MOL         1 TEMP              0 ****  ****    0 ROOT
