@<TRIPOS>MOLECULE
MOL
  175   173     1     0     0
SMALL
resp


@<TRIPOS>ATOM
      1 C1          0.5700    4.3210    5.0910 c3        1 MOL     -0.355178
      2 C2         -0.1630    4.4170    3.7800 c         1 MOL      0.730025
      3 O1          0.4120    4.5050    2.7220 o         1 MOL     -0.553544
      4 H1          0.3240    3.3760    5.5740 hc        1 MOL      0.085507
      5 H2          1.6440    4.3690    4.9120 hc        1 MOL      0.085507
      6 H3          0.2710    5.1480    5.7370 hc        1 MOL      0.085507
      7 N1         -1.4780    4.2600    3.8130 n         1 MOL     -0.725635
      8 C3         -2.2540    3.8170    2.6250 c3        1 MOL      0.301670
      9 C4         -2.4940    5.0230    1.6950 c         1 MOL      0.642186
     10 O2         -2.6370    6.1540    2.1150 o         1 MOL     -0.587852
     11 C5         -3.5340    3.0790    2.9920 c3        1 MOL     -0.519943
     12 C6         -4.2200    2.2880    1.8600 c         1 MOL      0.771624
     13 O3         -3.4900    2.0810    0.7840 o         1 MOL     -0.610297
     14 O4         -5.3070    1.8720    2.1130 o         1 MOL     -0.610297
     15 H4         -1.8090    4.1430    4.7570 hn        1 MOL      0.335889
     16 H5         -1.6600    3.1920    1.9560 h1        1 MOL      0.038318
     17 H6         -4.0880    3.8750    3.5040 hc        1 MOL      0.116409
     18 H7         -3.3260    2.3110    3.7330 hc        1 MOL      0.116409
     19 N2         -2.7330    4.7400    0.4370 n         1 MOL     -0.623346
     20 C7         -3.0130    5.5660   -0.6630 c3        1 MOL      0.263990
     21 C8         -3.8970    5.0310   -1.8050 c         1 MOL      0.424246
     22 O5         -4.1540    5.8370   -2.7200 o         1 MOL     -0.583970
     23 C9         -1.6030    5.8570   -1.0970 c3        1 MOL     -0.172186
     24 H8         -2.4910    3.7920    0.1900 hn        1 MOL      0.335674
     25 H9         -3.4720    6.4760   -0.2670 h1        1 MOL      0.018829
     26 H10        -1.5890    6.5430   -1.9420 hc        1 MOL      0.044705
     27 H11        -1.0700    6.3570   -0.2980 hc        1 MOL      0.044705
     28 H12        -1.0720    4.9780   -1.4560 hc        1 MOL      0.044705
     29 N3         -4.3110    3.8280   -1.7690 n         1 MOL     -0.259039
     30 C10        -5.2120    3.1410   -2.7430 c3        1 MOL      0.024019
     31 C11        -6.1580    2.0730   -2.2350 c         1 MOL      0.393099
     32 O6         -6.9960    1.7210   -3.0670 o         1 MOL     -0.544138
     33 C12        -4.3620    2.5620   -3.8370 c3        1 MOL     -0.111020
     34 C13        -3.2770    1.6070   -3.3020 c         1 MOL      0.792259
     35 O7         -3.4190    0.8860   -2.3510 o         1 MOL     -0.721068
     36 O8         -2.2300    1.6860   -3.9860 o         1 MOL     -0.721068
     37 H13        -4.0600    3.2140   -1.0080 hn        1 MOL      0.153111
     38 H14        -5.8760    3.8770   -3.1940 h1        1 MOL      0.084721
     39 H15        -3.8500    3.4010   -4.3040 hc        1 MOL      0.020357
     40 H16        -4.9910    2.0340   -4.5600 hc        1 MOL      0.020357
     41 N4         -6.2850    1.7980   -0.9760 n         1 MOL     -0.206193
     42 C14        -7.2760    0.9770   -0.3370 c3        1 MOL     -0.070679
     43 C15        -7.2050   -0.4650   -0.7170 c         1 MOL      0.315205
     44 O9         -8.2130   -1.1820   -0.3740 o         1 MOL     -0.569779
     45 H17        -5.5950    2.2070   -0.3660 hn        1 MOL      0.112988
     46 H18        -8.2770    1.4130   -0.4570 h1        1 MOL      0.094248
     47 H19        -7.0590    1.0420    0.7270 h1        1 MOL      0.094248
     48 N5         -6.2230   -0.9140   -1.5040 n         1 MOL     -0.034674
     49 C16        -6.2130   -2.1450   -2.1650 c3        1 MOL     -0.068186
     50 C17        -6.2450   -3.4960   -1.3310 c         1 MOL      0.539501
     51 O10        -6.5970   -4.5630   -1.7830 o         1 MOL     -0.556321
     52 C18        -4.9680   -2.2190   -3.1760 c3        1 MOL     -0.181715
     53 C19        -3.5920   -2.2470   -2.5440 c         1 MOL      0.541919
     54 N6         -2.5980   -2.7410   -3.2640 n         1 MOL     -0.621334
     55 O11        -3.4780   -1.9420   -1.3930 o         1 MOL     -0.584050
     56 H20        -5.4450   -0.2870   -1.6590 hn        1 MOL      0.198735
     57 H21        -7.1230   -2.2120   -2.7590 h1        1 MOL      0.079025
     58 H22        -5.0190   -1.4210   -3.9150 hc        1 MOL      0.054612
     59 H23        -5.0580   -3.1740   -3.6920 hc        1 MOL      0.054612
     60 H24        -2.9360   -2.8850   -4.2050 hn        1 MOL      0.322028
     61 H25        -1.6390   -2.5180   -3.0540 hn        1 MOL      0.322028
     62 N7         -5.9300   -3.2970   -0.0480 n         1 MOL     -0.172438
     63 C20        -6.1180   -4.2250    1.0390 c3        1 MOL     -0.281607
     64 C21        -4.7850   -4.8120    1.6970 c         1 MOL      0.560016
     65 O12        -4.8070   -5.6070    2.6500 o         1 MOL     -0.581356
     66 H26        -5.4680   -2.4170    0.1400 hn        1 MOL      0.222032
     67 H27        -6.6450   -5.1370    0.7410 h1        1 MOL      0.123155
     68 H28        -6.6920   -3.7550    1.8400 h1        1 MOL      0.123155
     69 N8         -3.6490   -4.4690    1.0910 n         1 MOL     -0.304400
     70 C22        -2.3300   -4.6920    1.6250 c3        1 MOL     -0.128054
     71 C23        -1.5220   -3.4240    1.8320 c         1 MOL      0.645824
     72 O13        -1.8110   -2.3800    1.2590 o         1 MOL     -0.534155
     73 C24        -1.5870   -5.6030    0.5680 c3        1 MOL      0.425517
     74 C25        -2.2680   -6.9830    0.4060 c3        1 MOL     -0.356497
     75 O14        -1.4900   -4.9690   -0.7130 oh        1 MOL     -0.591700
     76 H29        -3.7300   -3.7770    0.3670 hn        1 MOL      0.188879
     77 H30        -2.3750   -5.2100    2.5870 h1        1 MOL      0.093384
     78 H31        -0.5530   -5.6800    0.9040 h1        1 MOL     -0.034114
     79 H32        -1.4190   -4.0360   -0.5030 ho        1 MOL      0.397144
     80 H33        -2.2440   -7.4370   -0.5910 hc        1 MOL      0.090860
     81 H34        -1.8750   -7.7020    1.1250 hc        1 MOL      0.090860
     82 H35        -3.3110   -6.9740    0.7330 hc        1 MOL      0.090860
     83 N9         -0.4080   -3.6250    2.5190 n         1 MOL     -0.629915
     84 C26         0.7480   -2.6800    2.3470 c3        1 MOL      0.067811
     85 C27         1.5210   -3.0970    1.0610 c         1 MOL      0.327931
     86 O15         1.8530   -4.2770    0.7750 o         1 MOL     -0.539840
     87 C28         1.6600   -2.6560    3.6350 c3        1 MOL      0.179567
     88 C29         1.0850   -1.9100    4.8140 c3        1 MOL      0.025922
     89 C30         3.0360   -1.9800    3.3400 c3        1 MOL     -0.260004
     90 C31         1.6690   -2.3310    6.1450 c3        1 MOL     -0.241767
     91 H36        -0.2170   -4.5100    2.9510 hn        1 MOL      0.315359
     92 H37         0.3930   -1.6570    2.2750 h1        1 MOL      0.025816
     93 H38         1.9180   -3.6830    3.8950 hc        1 MOL      0.008129
     94 H39         0.0160   -2.0650    4.9500 hc        1 MOL      0.023036
     95 H40         1.1430   -0.8240    4.7330 hc        1 MOL      0.023036
     96 H41         2.9020   -1.0410    2.8030 hc        1 MOL      0.048141
     97 H42         3.6050   -1.9240    4.2650 hc        1 MOL      0.048141
     98 H43         3.6670   -2.5620    2.6630 hc        1 MOL      0.048141
     99 H44         1.8140   -3.4060    6.2400 hc        1 MOL      0.054105
    100 H45         2.6250   -1.8330    6.2850 hc        1 MOL      0.054105
    101 H46         1.0140   -1.9430    6.9260 hc        1 MOL      0.054105
    102 N10         1.9650   -2.0590    0.3160 n         1 MOL      0.003652
    103 C32         2.6980   -2.0890   -0.9690 c3        1 MOL     -0.032888
    104 C33         4.1130   -1.5850   -0.6380 c         1 MOL      0.426859
    105 O16         4.3120   -0.6980    0.1730 o         1 MOL     -0.405345
    106 C34         1.9990   -1.2910   -2.0320 c3        1 MOL      0.024743
    107 C35         0.5070   -1.4450   -2.2390 c         1 MOL      0.532953
    108 O17        -0.3400   -1.2150   -1.3270 o         1 MOL     -0.614583
    109 O18         0.1260   -1.9140   -3.3460 o         1 MOL     -0.614583
    110 H47         1.6710   -1.1830    0.7210 hn        1 MOL      0.113757
    111 H48         2.6890   -3.1350   -1.2640 h1        1 MOL      0.062638
    112 H49         2.4120   -1.4040   -3.0290 hc        1 MOL      0.009201
    113 H50         2.1530   -0.2700   -1.7090 hc        1 MOL      0.009201
    114 N11         5.1320   -1.9860   -1.4060 n         1 MOL     -0.580092
    115 C36         6.4520   -1.5950   -1.1330 c3        1 MOL      0.469887
    116 C37         6.7920   -0.0810   -1.0660 c         1 MOL      0.153865
    117 O19         7.4820    0.2910   -0.0810 o         1 MOL     -0.448626
    118 C38         7.5570   -2.3430   -1.9810 c3        1 MOL     -0.473997
    119 C39         9.0330   -1.8490   -1.9000 ca        1 MOL      0.344642
    120 C40         9.8850   -2.4370   -0.9580 ca        1 MOL     -0.324613
    121 C41         9.5040   -0.9290   -2.8590 ca        1 MOL     -0.324613
    122 C42        11.2040   -1.9840   -0.8480 ca        1 MOL      0.002528
    123 C43        10.8680   -0.5320   -2.8100 ca        1 MOL      0.002528
    124 C44        11.7200   -1.0620   -1.7860 ca        1 MOL     -0.239191
    125 H51         4.8940   -2.6600   -2.1170 hn        1 MOL      0.307995
    126 H52         6.6470   -1.9750   -0.1310 h1        1 MOL      0.039416
    127 H53         7.2170   -2.2750   -3.0150 hc        1 MOL      0.117724
    128 H54         7.7500   -3.3800   -1.7190 hc        1 MOL      0.117724
    129 H55         9.5580   -3.1600   -0.2170 ha        1 MOL      0.158900
    130 H56         8.8270   -0.4690   -3.5570 ha        1 MOL      0.158900
    131 H57        11.8420   -2.4000   -0.0940 ha        1 MOL      0.092736
    132 H58        11.3590    0.1940   -3.4490 ha        1 MOL      0.092736
    133 H59        12.7210   -0.6760   -1.6880 ha        1 MOL      0.131464
    134 N12         6.1830    0.8480   -1.8650 n         1 MOL      0.006228
    135 C45         6.3430    2.2550   -1.7070 c3        1 MOL      0.087228
    136 C46         5.6840    2.7860   -0.5140 c         1 MOL      0.262741
    137 O20         6.1360    3.7840    0.0320 o         1 MOL     -0.513845
    138 C47         5.6820    2.9600   -2.8650 c3        1 MOL      0.004076
    139 C48         5.7760    1.8480   -3.9890 c3        1 MOL     -0.146056
    140 C49         5.5280    0.6080   -3.1430 c3        1 MOL      0.043115
    141 H60         7.3980    2.5580   -1.6920 h1        1 MOL      0.056769
    142 H61         4.6560    3.2530   -2.6310 hc        1 MOL      0.033078
    143 H62         6.2880    3.8210   -3.1410 hc        1 MOL      0.033078
    144 H63         4.9990    1.9120   -4.7450 hc        1 MOL      0.049108
    145 H64         6.7850    1.8010   -4.4020 hc        1 MOL      0.049108
    146 H65         4.4630    0.4520   -2.9560 h1        1 MOL      0.024847
    147 H66         5.8700   -0.2730   -3.6770 h1        1 MOL      0.024847
    148 N13         4.6620    2.1110    0.0440 n         1 MOL     -0.015654
    149 C50         4.0580    2.4440    1.3490 c3        1 MOL     -0.204194
    150 C51         4.8540    1.8550    2.5360 c         1 MOL      0.497621
    151 O21         4.8360    2.4010    3.6370 o         1 MOL     -0.589391
    152 C52         2.5660    2.0180    1.4340 c3        1 MOL     -0.055842
    153 C53         1.6580    2.4720    0.3170 c3        1 MOL     -0.030813
    154 C54         0.4280    1.5770    0.2970 c         1 MOL      0.695643
    155 O22        -0.6120    1.9520   -0.3440 o         1 MOL     -0.754696
    156 O23         0.3260    0.5660    1.0550 o         1 MOL     -0.754696
    157 H67         4.3150    1.2610   -0.3580 hn        1 MOL      0.071095
    158 H68         4.1470    3.5160    1.5090 h1        1 MOL      0.119401
    159 H69         2.1960    2.2800    2.4230 hc        1 MOL      0.070605
    160 H70         2.6140    0.9370    1.5290 hc        1 MOL      0.070605
    161 H71         2.0600    2.3980   -0.6890 hc        1 MOL      0.042598
    162 H72         1.3290    3.4960    0.5040 hc        1 MOL      0.042598
    163 N14         5.5410    0.8010    2.2500 n         1 MOL     -0.038385
    164 C55         6.5330    0.2500    3.2650 c3        1 MOL     -0.179767
    165 H73         6.1470   -0.6800    3.6810 h1        1 MOL      0.074007
    166 H74         7.4880    0.0600    2.7740 h1        1 MOL      0.074007
    167 H75         6.6740    0.9750    4.0670 h1        1 MOL      0.074007
    168 H76         5.6450    0.5470    1.2780 hn        1 MOL      0.081847
    169 Ca1        -2.2170   -0.0130   -0.1240 Ca        1 MOL      1.637889
    170 O24        -1.5710    0.3420    2.6610 oh        1 MOL     -0.813682
    171 H77        -0.7200    0.3790    2.2220 ho        1 MOL      0.389597
    172 H78        -1.4240    0.7520    3.5030 ho        1 MOL      0.389597
    173 O25        -4.5160   -0.5880    1.0870 oh        1 MOL     -0.813682
    174 H79        -5.0930    0.1680    1.1460 ho        1 MOL      0.389597
    175 H80        -4.7330   -1.1220    1.8490 ho        1 MOL      0.389597
@<TRIPOS>BOND
     1    1    2 1   
     2    1    4 1   
     3    1    5 1   
     4    1    6 1   
     5    2    3 2   
     6    2    7 1   
     7    7    8 1   
     8    7   15 1   
     9    8    9 1   
    10    8   11 1   
    11    8   16 1   
    12    9   10 2   
    13    9   19 1   
    14   11   12 1   
    15   11   17 1   
    16   11   18 1   
    17   12   13 1   
    18   12   14 1   
    19   19   20 1   
    20   19   24 1   
    21   20   21 1   
    22   20   23 1   
    23   20   25 1   
    24   21   22 2   
    25   21   29 1   
    26   23   26 1   
    27   23   27 1   
    28   23   28 1   
    29   29   30 1   
    30   29   37 1   
    31   30   31 1   
    32   30   33 1   
    33   30   38 1   
    34   31   32 2   
    35   31   41 1   
    36   33   34 1   
    37   33   39 1   
    38   33   40 1   
    39   34   35 1   
    40   34   36 1   
    41   41   42 1   
    42   41   45 1   
    43   42   43 1   
    44   42   46 1   
    45   42   47 1   
    46   43   44 2   
    47   43   48 1   
    48   48   49 1   
    49   48   56 1   
    50   49   50 1   
    51   49   52 1   
    52   49   57 1   
    53   50   51 2   
    54   50   62 1   
    55   52   53 1   
    56   52   58 1   
    57   52   59 1   
    58   53   54 1   
    59   53   55 2   
    60   54   60 1   
    61   54   61 1   
    62   62   63 1   
    63   62   66 1   
    64   63   64 1   
    65   63   67 1   
    66   63   68 1   
    67   64   65 2   
    68   64   69 1   
    69   69   70 1   
    70   69   76 1   
    71   70   71 1   
    72   70   73 1   
    73   70   77 1   
    74   71   72 2   
    75   71   83 1   
    76   73   74 1   
    77   73   75 1   
    78   73   78 1   
    79   74   80 1   
    80   74   81 1   
    81   74   82 1   
    82   75   79 1   
    83   83   84 1   
    84   83   91 1   
    85   84   85 1   
    86   84   87 1   
    87   84   92 1   
    88   85   86 2   
    89   85  102 1   
    90   87   88 1   
    91   87   89 1   
    92   87   93 1   
    93   88   90 1   
    94   88   94 1   
    95   88   95 1   
    96   89   96 1   
    97   89   97 1   
    98   89   98 1   
    99   90   99 1   
   100   90  100 1   
   101   90  101 1   
   102  102  103 1   
   103  102  110 1   
   104  103  104 1   
   105  103  106 1   
   106  103  111 1   
   107  104  105 2   
   108  104  114 1   
   109  106  107 1   
   110  106  112 1   
   111  106  113 1   
   112  107  108 1   
   113  107  109 1   
   114  114  115 1   
   115  114  125 1   
   116  115  116 1   
   117  115  118 1   
   118  115  126 1   
   119  116  117 2   
   120  116  134 1   
   121  118  119 1   
   122  118  127 1   
   123  118  128 1   
   124  119  120 ar  
   125  119  121 ar  
   126  120  122 ar  
   127  120  129 1   
   128  121  123 ar  
   129  121  130 1   
   130  122  124 ar  
   131  122  131 1   
   132  123  124 ar  
   133  123  132 1   
   134  124  133 1   
   135  134  135 1   
   136  134  140 1   
   137  135  136 1   
   138  135  138 1   
   139  135  141 1   
   140  136  137 2   
   141  136  148 1   
   142  138  139 1   
   143  138  142 1   
   144  138  143 1   
   145  139  140 1   
   146  139  144 1   
   147  139  145 1   
   148  140  146 1   
   149  140  147 1   
   150  148  149 1   
   151  148  157 1   
   152  149  150 1   
   153  149  152 1   
   154  149  158 1   
   155  150  151 2   
   156  150  163 1   
   157  152  153 1   
   158  152  159 1   
   159  152  160 1   
   160  153  154 1   
   161  153  161 1   
   162  153  162 1   
   163  154  155 1   
   164  154  156 1   
   165  163  164 1   
   166  163  168 1   
   167  164  165 1   
   168  164  166 1   
   169  164  167 1   
   170  170  171 1   
   171  170  172 1   
   172  173  174 1   
   173  173  175 1   
@<TRIPOS>SUBSTRUCTURE
     1 MOL         1 TEMP              0 ****  ****    0 ROOT
