@<TRIPOS>MOLECULE
MOL
  189   185     1     0     0
SMALL
resp


@<TRIPOS>ATOM
      1 C1          0.2020    1.6300    6.5400 c3        1 MOL     -0.419555
      2 C2         -0.2530    1.4850    5.0420 c         1 MOL      0.697500
      3 O1          0.5780    1.8430    4.2020 o         1 MOL     -0.604313
      4 H1          0.7050    2.5870    6.6740 hc        1 MOL      0.112857
      5 H2         -0.6710    1.5840    7.1910 hc        1 MOL      0.112857
      6 H3          0.8870    0.8210    6.7920 hc        1 MOL      0.112857
      7 N1         -1.4550    0.9370    4.6840 n         1 MOL     -0.548322
      8 C3         -1.9590    0.9060    3.3120 c3        1 MOL      0.150884
      9 C4         -2.1690    2.3980    2.8800 c         1 MOL      0.467091
     10 O2         -3.1710    3.0260    3.3620 o         1 MOL     -0.540028
     11 C5         -3.1530    0.0040    3.2160 c3        1 MOL     -0.184073
     12 C6         -3.8070   -0.0830    1.8440 c         1 MOL      0.763482
     13 O3         -4.8760   -0.7500    1.8040 o         1 MOL     -0.679512
     14 O4         -3.2970    0.4780    0.8230 o         1 MOL     -0.679512
     15 H4         -1.9950    0.5140    5.4280 hn        1 MOL      0.315343
     16 H5         -1.1560    0.4640    2.7250 h1        1 MOL     -0.109461
     17 H6         -3.8740    0.3070    3.9700 hc        1 MOL      0.053358
     18 H7         -2.8540   -1.0270    3.4310 hc        1 MOL      0.053358
     19 N2         -1.4210    3.0480    1.9590 n         1 MOL     -0.136834
     20 C7         -1.4810    4.5100    1.8370 c3        1 MOL     -0.202523
     21 C8         -2.8190    5.0300    1.2180 c         1 MOL      0.540115
     22 O5         -3.1110    6.2370    1.2130 o         1 MOL     -0.578300
     23 C9         -0.2430    5.0060    1.0350 c3        1 MOL     -0.075488
     24 C10        -0.2860    4.7790   -0.4830 c3        1 MOL      0.141355
     25 C11         1.0980    4.8110   -0.9990 c3        1 MOL     -0.082349
     26 C12         1.1140    4.2490   -2.4490 c3        1 MOL     -0.015745
     27 N3          1.0270    5.2540   -3.4820 n4        1 MOL     -0.550353
     28 H8         -0.8640    2.5340    1.2920 hn        1 MOL      0.208769
     29 H9         -1.4660    4.8190    2.8790 h1        1 MOL      0.133436
     30 H10         0.6130    4.5790    1.5570 hc        1 MOL      0.051876
     31 H11        -0.1900    6.0740    1.2630 hc        1 MOL      0.051876
     32 H12        -0.8220    5.6020   -0.9470 hc        1 MOL     -0.006089
     33 H13        -0.7620    3.8080   -0.6780 hc        1 MOL     -0.006089
     34 H14         1.5880    4.0540   -0.3980 hc        1 MOL      0.022038
     35 H15         1.6550    5.7200   -0.7450 hc        1 MOL      0.022038
     36 H16         0.2790    3.5600   -2.5270 hx        1 MOL      0.091168
     37 H17         1.9990    3.6310   -2.6160 hx        1 MOL      0.091168
     38 H18         1.9530    5.6540   -3.5270 hn        1 MOL      0.376491
     39 H19         0.7940    4.8780   -4.3820 hn        1 MOL      0.376491
     40 H20         0.2870    5.9350   -3.3580 hn        1 MOL      0.376491
     41 N4         -3.4240    4.1970    0.4210 n         1 MOL     -0.304861
     42 C13        -4.4180    4.4330   -0.6080 c3        1 MOL      0.235308
     43 C14        -5.6590    3.5470   -0.3880 c         1 MOL      0.350612
     44 O6         -6.7320    3.8210   -0.9800 o         1 MOL     -0.513062
     45 C15        -3.8410    4.4180   -2.0510 c3        1 MOL     -0.464876
     46 C16        -3.1520    3.1430   -2.5310 c         1 MOL      0.983129
     47 O7         -2.6080    3.2310   -3.6740 o         1 MOL     -0.760726
     48 O8         -3.1980    2.0440   -1.9190 o         1 MOL     -0.760726
     49 H21        -2.9430    3.3150    0.3330 hn        1 MOL      0.030811
     50 H22        -4.8170    5.4430   -0.4970 h1        1 MOL      0.071204
     51 H23        -3.1000    5.2050   -2.1570 hc        1 MOL      0.104590
     52 H24        -4.7170    4.4700   -2.7050 hc        1 MOL      0.104590
     53 N5         -5.6320    2.4960    0.4820 n         1 MOL     -0.198680
     54 C17        -6.7970    1.7340    0.8830 c3        1 MOL     -0.269638
     55 C18        -7.4110    0.8300   -0.1050 c         1 MOL      0.610048
     56 O9         -8.6120    0.6700   -0.1130 o         1 MOL     -0.582103
     57 H25        -4.7600    2.1790    0.8580 hn        1 MOL      0.217182
     58 H26        -7.6030    2.4350    1.1080 h1        1 MOL      0.124414
     59 H27        -6.5920    1.1830    1.8000 h1        1 MOL      0.124414
     60 N6         -6.5580    0.2020   -0.9020 n         1 MOL     -0.337435
     61 C19        -6.9620   -0.8510   -1.8750 c3        1 MOL     -0.006111
     62 C20        -7.0060   -2.2530   -1.1570 c         1 MOL      0.384411
     63 O10        -7.5090   -3.2700   -1.5960 o         1 MOL     -0.524002
     64 C21        -6.0800   -0.8500   -3.1170 c3        1 MOL     -0.103004
     65 C22        -4.5320   -0.7910   -2.8300 c         1 MOL      0.638054
     66 O11        -3.6680   -0.3240   -3.6220 o         1 MOL     -0.681888
     67 O12        -4.1280   -1.3170   -1.7590 o         1 MOL     -0.681888
     68 H28        -5.5820    0.4260   -0.7910 hn        1 MOL      0.263825
     69 H29        -7.9830   -0.6520   -2.1930 h1        1 MOL      0.113641
     70 H30        -6.3410   -0.0340   -3.7860 hc        1 MOL      0.044392
     71 H31        -6.3620   -1.7670   -3.6300 hc        1 MOL      0.044392
     72 N7         -6.4890   -2.2840    0.0910 n         1 MOL     -0.070155
     73 C23        -6.4350   -3.4050    0.9880 c3        1 MOL     -0.316137
     74 C24        -5.1780   -4.2600    0.8320 c         1 MOL      0.541093
     75 O13        -5.1600   -5.5070    1.1530 o         1 MOL     -0.574274
     76 H32        -6.0720   -1.4290    0.4390 hn        1 MOL      0.163029
     77 H33        -7.3220   -3.9930    0.7840 h1        1 MOL      0.140343
     78 H34        -6.3850   -3.0130    2.0070 h1        1 MOL      0.140343
     79 N8         -4.1620   -3.7030    0.1540 n         1 MOL     -0.149878
     80 C25        -2.9610   -4.4150   -0.3020 c3        1 MOL     -0.337575
     81 C26        -1.6600   -3.6550    0.0850 c         1 MOL      0.803666
     82 O14        -1.6660   -2.4170   -0.0380 o         1 MOL     -0.769567
     83 C27        -3.0300   -4.8950   -1.7810 c3        1 MOL      0.439394
     84 C28        -4.2550   -5.7550   -2.1090 c3        1 MOL     -0.378361
     85 O15        -3.2640   -3.7740   -2.6130 oh        1 MOL     -0.653484
     86 H35        -4.3280   -2.7240   -0.0380 hn        1 MOL      0.152396
     87 H36        -2.9430   -5.2960    0.3290 h1        1 MOL      0.100418
     88 H37        -2.0970   -5.3970   -2.0420 h1        1 MOL     -0.002532
     89 H38        -3.7530   -3.1590   -2.0670 ho        1 MOL      0.465563
     90 H39        -5.1180   -5.1860   -1.7830 hc        1 MOL      0.104437
     91 H40        -4.4420   -5.9510   -3.1610 hc        1 MOL      0.104437
     92 H41        -4.0710   -6.7860   -1.7670 hc        1 MOL      0.104437
     93 N9         -0.5510   -4.2600    0.4540 n         1 MOL     -0.643441
     94 C29         0.6500   -3.5840    0.9260 c3        1 MOL      0.063966
     95 C30         1.8560   -3.9490    0.0600 c         1 MOL      0.471539
     96 O16         2.3470   -5.0930   -0.0350 o         1 MOL     -0.531303
     97 C31         0.8120   -3.6850    2.5300 c3        1 MOL     -0.045945
     98 C32        -0.2300   -2.6710    3.1350 c3        1 MOL      0.383375
     99 C33         2.2620   -3.5440    3.0170 c3        1 MOL     -0.197302
    100 C34        -0.0520   -2.4420    4.6060 c3        1 MOL     -0.312879
    101 H42        -0.4690   -5.2660    0.4870 hn        1 MOL      0.335915
    102 H43         0.5350   -2.5010    0.8210 h1        1 MOL      0.160276
    103 H44         0.5020   -4.6390    2.9510 hc        1 MOL      0.030078
    104 H45        -1.2210   -3.1230    3.0750 hc        1 MOL     -0.050511
    105 H46        -0.2760   -1.7050    2.6500 hc        1 MOL     -0.050511
    106 H47         2.9300   -4.2140    2.4750 hc        1 MOL      0.034816
    107 H48         2.6700   -2.5420    2.9100 hc        1 MOL      0.034816
    108 H49         2.2350   -3.8080    4.0730 hc        1 MOL      0.034816
    109 H50        -0.9500   -1.9070    4.9000 hc        1 MOL      0.065505
    110 H51         0.0350   -3.3650    5.1740 hc        1 MOL      0.065505
    111 H52         0.8030   -1.7830    4.7060 hc        1 MOL      0.065505
    112 N10         2.3900   -2.9250   -0.6620 n         1 MOL     -0.033284
    113 C35         3.4890   -2.9750   -1.5720 c3        1 MOL     -0.208648
    114 C36         4.8070   -2.8470   -0.7590 c         1 MOL      0.298612
    115 O17         4.8500   -2.6440    0.4420 o         1 MOL     -0.267013
    116 C37         3.4260   -1.7960   -2.5470 c3        1 MOL      0.330116
    117 C38         2.0920   -1.6550   -3.3520 c3        1 MOL     -0.657557
    118 O18         3.4870   -0.5500   -1.8770 oh        1 MOL     -0.508778
    119 H53         2.0160   -1.9960   -0.4980 hn        1 MOL      0.054699
    120 H54         3.4330   -3.8750   -2.1850 h1        1 MOL      0.117751
    121 H55         4.2690   -1.8730   -3.2190 h1        1 MOL      0.047169
    122 H56         2.6640   -0.3730   -1.4150 ho        1 MOL      0.273044
    123 H57         1.4630   -2.5390   -3.3820 hc        1 MOL      0.173267
    124 H58         1.4920   -0.8250   -2.9680 hc        1 MOL      0.173267
    125 H59         2.3140   -1.2200   -4.3330 hc        1 MOL      0.173267
    126 N11         5.9680   -2.9740   -1.4640 n         1 MOL     -0.192772
    127 C39         7.3600   -2.7260   -0.9240 c3        1 MOL     -0.347131
    128 C40         7.4890   -1.3020   -0.3030 c         1 MOL      0.566502
    129 O19         8.0550   -1.0730    0.7480 o         1 MOL     -0.506747
    130 C41         8.3450   -2.9330   -2.1250 c3        1 MOL      0.307893
    131 C42         8.3170   -4.3440   -2.6910 c3        1 MOL     -0.307894
    132 O20         7.9150   -2.0820   -3.1420 oh        1 MOL     -0.671703
    133 H60         5.9340   -3.0910   -2.4680 hn        1 MOL      0.252704
    134 H61         7.6220   -3.4440   -0.1460 h1        1 MOL      0.191565
    135 H62         9.4030   -2.6960   -1.9850 h1        1 MOL      0.043369
    136 H63         8.5510   -2.2310   -3.8430 ho        1 MOL      0.428747
    137 H64         7.2890   -4.5700   -2.9690 hc        1 MOL      0.087663
    138 H65         8.9770   -4.4700   -3.5410 hc        1 MOL      0.087663
    139 H66         8.5950   -4.9910   -1.8600 hc        1 MOL      0.087663
    140 N12         6.9050   -0.3080   -0.9560 n         1 MOL     -0.304130
    141 C43         6.7570    1.1190   -0.5870 c3        1 MOL     -0.081732
    142 C44         6.0810    1.2260    0.7760 c         1 MOL      0.556744
    143 O21         6.6720    1.8590    1.6500 o         1 MOL     -0.529980
    144 C45         6.0920    1.9020   -1.7100 c3        1 MOL     -0.018959
    145 C46         5.6940    3.3650   -1.5440 c3        1 MOL     -0.323485
    146 C47         6.9250    4.2280   -1.3750 c3        1 MOL      0.162566
    147 C48         6.7440    5.7760   -1.5890 c3        1 MOL      0.054312
    148 N13         8.0340    6.4320   -1.8060 n4        1 MOL     -0.295325
    149 H67         6.3930   -0.5630   -1.7900 hn        1 MOL      0.229516
    150 H68         7.7590    1.5360   -0.4790 h1        1 MOL      0.058945
    151 H69         5.2680    1.2810   -2.0440 hc        1 MOL      0.038763
    152 H70         6.7540    1.8960   -2.5790 hc        1 MOL      0.038763
    153 H71         5.1830    3.4850   -0.5890 hc        1 MOL      0.085303
    154 H72         5.0620    3.5800   -2.3980 hc        1 MOL      0.085303
    155 H73         7.5230    3.8800   -2.2230 hc        1 MOL      0.010269
    156 H74         7.3300    4.0470   -0.3780 hc        1 MOL      0.010269
    157 H75         6.2210    6.2720   -0.7660 hx        1 MOL      0.064486
    158 H76         6.1150    5.8920   -2.4760 hx        1 MOL      0.064486
    159 H77         8.2880    6.3720   -2.7790 hn        1 MOL      0.300564
    160 H78         7.9440    7.4410   -1.7710 hn        1 MOL      0.300564
    161 H79         8.7420    6.0010   -1.2330 hn        1 MOL      0.300564
    162 N14         4.9170    0.5870    0.9130 n         1 MOL     -0.168892
    163 C49         4.0810    0.6290    2.1470 c3        1 MOL     -0.402788
    164 C50         4.6260   -0.2940    3.3010 c         1 MOL      0.532205
    165 O22         4.3450   -0.0960    4.4730 o         1 MOL     -0.523613
    166 C51         2.6520    0.2010    1.7440 c3        1 MOL      0.189985
    167 C52         1.9640    1.2000    0.8450 c3        1 MOL     -0.182751
    168 C53         0.7730    0.6110    0.1020 c         1 MOL      0.576421
    169 O23         0.9750   -0.2780   -0.6790 o         1 MOL     -0.552334
    170 O24        -0.3210    1.1700    0.1380 o         1 MOL     -0.552334
    171 H80         4.5950   -0.0250    0.1750 hn        1 MOL      0.190579
    172 H81         3.9710    1.6490    2.5230 h1        1 MOL      0.181321
    173 H82         2.1370    0.0420    2.6920 hc        1 MOL      0.067585
    174 H83         2.7820   -0.7280    1.1930 hc        1 MOL      0.067585
    175 H84         2.6640    1.6350    0.1300 hc        1 MOL      0.035136
    176 H85         1.5910    1.9490    1.5420 hc        1 MOL      0.035136
    177 N15         5.4460   -1.3510    3.0240 n         1 MOL     -0.126859
    178 C54         6.0480   -2.2410    3.9660 c3        1 MOL     -0.408258
    179 H86         7.0840   -2.4250    3.6810 h1        1 MOL      0.142923
    180 H87         6.0200   -1.7920    4.9590 h1        1 MOL      0.142923
    181 H88         5.5020   -3.1840    3.9770 h1        1 MOL      0.142923
    182 H89         5.5700   -1.5520    2.0400 hn        1 MOL      0.135273
    183 Ca1        -1.9050   -0.0740   -1.3910 Ca        1 MOL      1.727055
    184 O25        -0.5130    1.2320   -3.1350 oh        1 MOL     -0.872385
    185 H90        -0.9940    1.7410   -3.7910 ho        1 MOL      0.403032
    186 H91         0.4030    1.2830   -3.4250 ho        1 MOL      0.403032
    187 O26        -1.0660   -2.2550   -2.7030 oh        1 MOL     -0.872385
    188 H92        -0.7840   -2.3290   -3.6170 ho        1 MOL      0.403032
    189 H93        -1.7190   -2.9460   -2.6020 ho        1 MOL      0.403032
@<TRIPOS>BOND
     1    1    2 1   
     2    1    4 1   
     3    1    5 1   
     4    1    6 1   
     5    2    3 2   
     6    2    7 1   
     7    7    8 1   
     8    7   15 1   
     9    8    9 1   
    10    8   11 1   
    11    8   16 1   
    12    9   10 2   
    13    9   19 1   
    14   11   12 1   
    15   11   17 1   
    16   11   18 1   
    17   12   13 1   
    18   12   14 1   
    19   19   20 1   
    20   19   28 1   
    21   20   21 1   
    22   20   23 1   
    23   20   29 1   
    24   21   22 2   
    25   21   41 1   
    26   23   24 1   
    27   23   30 1   
    28   23   31 1   
    29   24   25 1   
    30   24   32 1   
    31   24   33 1   
    32   25   26 1   
    33   25   34 1   
    34   25   35 1   
    35   26   27 1   
    36   26   36 1   
    37   26   37 1   
    38   27   38 1   
    39   27   39 1   
    40   27   40 1   
    41   41   42 1   
    42   41   49 1   
    43   42   43 1   
    44   42   45 1   
    45   42   50 1   
    46   43   44 2   
    47   43   53 1   
    48   45   46 1   
    49   45   51 1   
    50   45   52 1   
    51   46   47 1   
    52   46   48 1   
    53   53   54 1   
    54   53   57 1   
    55   54   55 1   
    56   54   58 1   
    57   54   59 1   
    58   55   56 2   
    59   55   60 1   
    60   60   61 1   
    61   60   68 1   
    62   61   62 1   
    63   61   64 1   
    64   61   69 1   
    65   62   63 2   
    66   62   72 1   
    67   64   65 1   
    68   64   70 1   
    69   64   71 1   
    70   65   66 1   
    71   65   67 1   
    72   72   73 1   
    73   72   76 1   
    74   73   74 1   
    75   73   77 1   
    76   73   78 1   
    77   74   75 2   
    78   74   79 1   
    79   79   80 1   
    80   79   86 1   
    81   80   81 1   
    82   80   83 1   
    83   80   87 1   
    84   81   82 2   
    85   81   93 1   
    86   83   84 1   
    87   83   85 1   
    88   83   88 1   
    89   84   90 1   
    90   84   91 1   
    91   84   92 1   
    92   85   89 1   
    93   93   94 1   
    94   93  101 1   
    95   94   95 1   
    96   94   97 1   
    97   94  102 1   
    98   95   96 2   
    99   95  112 1   
   100   97   98 1   
   101   97   99 1   
   102   97  103 1   
   103   98  100 1   
   104   98  104 1   
   105   98  105 1   
   106   99  106 1   
   107   99  107 1   
   108   99  108 1   
   109  100  109 1   
   110  100  110 1   
   111  100  111 1   
   112  112  113 1   
   113  112  119 1   
   114  113  114 1   
   115  113  116 1   
   116  113  120 1   
   117  114  115 2   
   118  114  126 1   
   119  116  117 1   
   120  116  118 1   
   121  116  121 1   
   122  117  123 1   
   123  117  124 1   
   124  117  125 1   
   125  118  122 1   
   126  126  127 1   
   127  126  133 1   
   128  127  128 1   
   129  127  130 1   
   130  127  134 1   
   131  128  129 2   
   132  128  140 1   
   133  130  131 1   
   134  130  132 1   
   135  130  135 1   
   136  131  137 1   
   137  131  138 1   
   138  131  139 1   
   139  132  136 1   
   140  140  141 1   
   141  140  149 1   
   142  141  142 1   
   143  141  144 1   
   144  141  150 1   
   145  142  143 2   
   146  142  162 1   
   147  144  145 1   
   148  144  151 1   
   149  144  152 1   
   150  145  146 1   
   151  145  153 1   
   152  145  154 1   
   153  146  147 1   
   154  146  155 1   
   155  146  156 1   
   156  147  148 1   
   157  147  157 1   
   158  147  158 1   
   159  148  159 1   
   160  148  160 1   
   161  148  161 1   
   162  162  163 1   
   163  162  171 1   
   164  163  164 1   
   165  163  166 1   
   166  163  172 1   
   167  164  165 2   
   168  164  177 1   
   169  166  167 1   
   170  166  173 1   
   171  166  174 1   
   172  167  168 1   
   173  167  175 1   
   174  167  176 1   
   175  168  169 1   
   176  168  170 1   
   177  177  178 1   
   178  177  182 1   
   179  178  179 1   
   180  178  180 1   
   181  178  181 1   
   182  184  185 1   
   183  184  186 1   
   184  187  188 1   
   185  187  189 1   
@<TRIPOS>SUBSTRUCTURE
     1 MOL         1 TEMP              0 ****  ****    0 ROOT
