@<TRIPOS>MOLECULE
MOL
  183   181     1     0     0
SMALL
resp


@<TRIPOS>ATOM
      1 C1          1.3710   -2.6210    6.2580 c3        1 MOL     -0.374297
      2 C2          1.6600   -2.7340    4.7290 c         1 MOL      0.715510
      3 O1          0.8030   -3.2280    4.0520 o         1 MOL     -0.536048
      4 H1          1.5600   -3.5830    6.7350 hc        1 MOL      0.085907
      5 H2          2.0230   -1.8650    6.6970 hc        1 MOL      0.085907
      6 H3          0.3300   -2.3370    6.4120 hc        1 MOL      0.085907
      7 N1          2.8050   -2.1710    4.2650 n         1 MOL     -0.656108
      8 C3          3.1090   -1.9170    2.8780 c3        1 MOL      0.139509
      9 C4          3.4920   -3.3090    2.2770 c         1 MOL      0.633245
     10 O2          4.4190   -3.9150    2.6820 o         1 MOL     -0.581244
     11 C5          4.2910   -0.8510    2.9180 c3        1 MOL     -0.248634
     12 C6          4.8060   -0.5070    1.5010 c         1 MOL      0.840881
     13 O3          4.1960   -0.8880    0.4970 o         1 MOL     -0.740043
     14 O4          5.8880    0.1420    1.4080 o         1 MOL     -0.740043
     15 H4          3.3870   -1.6840    4.9230 hn        1 MOL      0.330088
     16 H5          2.1750   -1.6220    2.4030 h1        1 MOL      0.026922
     17 H6          5.1230   -1.3690    3.3960 hc        1 MOL      0.061599
     18 H7          4.0300    0.0610    3.4520 hc        1 MOL      0.061599
     19 N2          2.6990   -3.8090    1.3030 n         1 MOL     -0.305071
     20 C7          2.8050   -5.1850    0.6620 c3        1 MOL     -0.118665
     21 C8          3.6340   -5.1890   -0.6440 c         1 MOL      0.555097
     22 O5          4.6270   -5.8820   -0.8060 o         1 MOL     -0.600294
     23 C9          1.3600   -5.6770    0.3890 c3        1 MOL      0.197441
     24 C10         0.4200   -5.8250    1.5920 c3        1 MOL      0.123851
     25 C11         1.3610   -7.0350   -0.4310 c3        1 MOL     -0.390971
     26 C12        -1.1210   -5.9000    1.3220 c3        1 MOL     -0.114704
     27 H8          1.8410   -3.3080    1.1420 hn        1 MOL      0.220841
     28 H9          3.2820   -5.8750    1.3590 h1        1 MOL      0.073435
     29 H10         0.8930   -4.9010   -0.2140 hc        1 MOL     -0.002352
     30 H11         0.5760   -4.9680    2.2370 hc        1 MOL     -0.042251
     31 H12         0.8240   -6.6740    2.1580 hc        1 MOL     -0.042251
     32 H13         0.3550   -7.4400   -0.5160 hc        1 MOL      0.083807
     33 H14         1.6800   -6.7780   -1.4450 hc        1 MOL      0.083807
     34 H15         2.0120   -7.7880    0.0160 hc        1 MOL      0.083807
     35 H16        -1.5570   -5.0460    0.8150 hc        1 MOL      0.017464
     36 H17        -1.4380   -6.8570    0.8990 hc        1 MOL      0.017464
     37 H18        -1.5500   -5.8610    2.3300 hc        1 MOL      0.017464
     38 N3          3.4150   -4.2030   -1.5510 n         1 MOL     -0.227120
     39 C13         4.2570   -3.9960   -2.7670 c3        1 MOL     -0.242294
     40 C14         5.5750   -3.2240   -2.5180 c         1 MOL      0.479304
     41 O6          6.2600   -2.9900   -3.5180 o         1 MOL     -0.511088
     42 C15         3.3210   -3.5380   -3.9260 c3        1 MOL      0.033715
     43 C16         2.4110   -2.3920   -3.5980 c         1 MOL      0.712311
     44 O7          1.3860   -2.2980   -4.3630 o         1 MOL     -0.726724
     45 O8          2.5740   -1.5940   -2.6310 o         1 MOL     -0.726724
     46 H19         2.7560   -3.4760   -1.3160 hn        1 MOL      0.169420
     47 H20         4.6010   -4.9890   -3.0760 h1        1 MOL      0.123666
     48 H21         2.6430   -4.3730   -4.1150 hc        1 MOL      0.005307
     49 H22         3.9330   -3.3680   -4.8180 hc        1 MOL      0.005307
     50 N4          5.9530   -2.7740   -1.3170 n         1 MOL     -0.076697
     51 C17         7.2070   -2.1430   -0.8980 c3        1 MOL     -0.383472
     52 C18         7.5280   -0.8230   -1.5900 c         1 MOL      0.745885
     53 O9          8.3260   -0.8870   -2.5200 o         1 MOL     -0.589699
     54 H23         5.1860   -2.7170   -0.6680 hn        1 MOL      0.176842
     55 H24         8.0370   -2.8340   -1.0600 h1        1 MOL      0.121606
     56 H25         7.2250   -2.0030    0.1810 h1        1 MOL      0.121606
     57 N5          7.0050    0.3360   -1.1220 n         1 MOL     -0.539250
     58 C19         7.2840    1.6600   -1.6820 c3        1 MOL      0.082829
     59 C20         7.2970    2.8520   -0.6580 c         1 MOL      0.432142
     60 O10         7.6030    3.9600   -1.1280 o         1 MOL     -0.552668
     61 C21         6.2580    1.8760   -2.7840 c3        1 MOL     -0.239399
     62 C22         4.8280    1.6760   -2.3570 c         1 MOL      0.860589
     63 O11         4.0480    1.0430   -3.0760 o         1 MOL     -0.774201
     64 O12         4.4310    2.1400   -1.2600 o         1 MOL     -0.774201
     65 H26         6.4690    0.1840   -0.2830 hn        1 MOL      0.210610
     66 H27         8.2790    1.5550   -2.1350 h1        1 MOL      0.060104
     67 H28         6.4040    1.2200   -3.6420 hc        1 MOL      0.061950
     68 H29         6.3170    2.9320   -3.0620 hc        1 MOL      0.061950
     69 N6          6.9260    2.6940    0.6220 n         1 MOL     -0.252218
     70 C23         6.8370    3.6840    1.7430 c3        1 MOL     -0.299878
     71 C24         5.4710    4.3630    1.7700 c         1 MOL      0.639577
     72 O13         5.3280    5.3280    2.4760 o         1 MOL     -0.601170
     73 H30         6.5660    1.7770    0.8540 hn        1 MOL      0.274606
     74 H31         7.5970    4.4550    1.6230 h1        1 MOL      0.136877
     75 H32         7.0450    3.0980    2.6400 h1        1 MOL      0.136877
     76 N7          4.3940    3.8440    1.1050 n         1 MOL     -0.376585
     77 C25         2.9910    4.2890    1.2790 c3        1 MOL      0.028578
     78 C26         1.9440    3.1280    1.2520 c         1 MOL      0.575011
     79 O14         2.2420    2.0520    0.7990 o         1 MOL     -0.624849
     80 C27         2.6340    5.2010    0.1260 c3        1 MOL      0.187484
     81 C28         3.3500    6.5400    0.1800 c3        1 MOL     -0.445372
     82 C29         2.7420    7.5560   -0.8070 c         1 MOL      0.705023
     83 N8          3.1330    7.6210   -2.0360 n         1 MOL     -0.799314
     84 O15         1.8490    8.3370   -0.4410 o         1 MOL     -0.596074
     85 H33         4.5690    3.0920    0.4550 hn        1 MOL      0.254665
     86 H34         2.9200    4.8090    2.2410 h1        1 MOL      0.058506
     87 H35         1.5920    5.4980    0.2030 hc        1 MOL      0.002994
     88 H36         2.7400    4.6520   -0.8080 hc        1 MOL      0.002994
     89 H37         4.3770    6.3050   -0.1020 hc        1 MOL      0.124680
     90 H38         3.3090    6.9250    1.2040 hc        1 MOL      0.124680
     91 H39         3.9110    7.0480   -2.3080 hn        1 MOL      0.365987
     92 H40         2.6560    8.1620   -2.7440 hn        1 MOL      0.365987
     93 N9          0.7580    3.4020    1.7580 n         1 MOL     -0.543976
     94 C30        -0.2960    2.4300    2.0690 c3        1 MOL      0.012120
     95 C31        -1.5130    2.8110    1.2530 c         1 MOL      0.400968
     96 O16        -2.1370    3.8900    1.4950 o         1 MOL     -0.587555
     97 C32        -0.6220    2.4680    3.6200 c3        1 MOL      0.451086
     98 C33        -1.8570    1.6250    3.9960 c3        1 MOL     -0.507400
     99 C34         0.5220    1.9680    4.3990 c3        1 MOL     -0.507400
    100 H41         0.6060    4.3210    2.1390 hn        1 MOL      0.303211
    101 H42         0.0400    1.4000    1.9000 h1        1 MOL      0.142709
    102 H43        -0.7400    3.5030    3.9450 hc        1 MOL     -0.059790
    103 H44        -1.7740    1.3660    5.0500 hc        1 MOL      0.110630
    104 H45        -2.6900    2.3000    3.7670 hc        1 MOL      0.110630
    105 H46        -1.8530    0.6700    3.4730 hc        1 MOL      0.110630
    106 H47         0.4540    2.2950    5.4360 hc        1 MOL      0.110630
    107 H48         0.3720    0.8840    4.3780 hc        1 MOL      0.110630
    108 H49         1.4730    2.2050    3.9200 hc        1 MOL      0.110630
    109 N10        -1.7120    2.0540    0.2150 n         1 MOL     -0.148423
    110 C35        -2.8190    2.2680   -0.6810 c3        1 MOL     -0.006921
    111 C36        -4.0940    1.7520    0.1030 c         1 MOL      0.207807
    112 O17        -3.9900    0.8510    0.9060 o         1 MOL     -0.313367
    113 C37        -2.7220    1.4890   -2.0020 c3        1 MOL     -0.304386
    114 C38        -3.8330    1.7040   -2.9760 c         1 MOL      0.602151
    115 N11        -4.1240    2.9070   -3.4280 n         1 MOL     -0.777684
    116 O18        -4.6100    0.7680   -3.2100 o         1 MOL     -0.440923
    117 H50        -1.2100    1.1870    0.1860 hn        1 MOL      0.257006
    118 H51        -2.7480    3.3280   -0.9260 h1        1 MOL      0.079435
    119 H52        -2.5400    0.4320   -1.8270 hc        1 MOL      0.117514
    120 H53        -1.7730    1.8410   -2.4200 hc        1 MOL      0.117514
    121 H54        -3.3510    3.5180   -3.6280 hn        1 MOL      0.357534
    122 H55        -4.8960    2.9150   -4.0830 hn        1 MOL      0.357534
    123 N12        -5.2000    2.3420   -0.2560 n         1 MOL     -0.148762
    124 C39        -6.4910    1.9140    0.1850 c3        1 MOL      0.207511
    125 C40        -6.6330    0.3790    0.2250 c         1 MOL      0.554110
    126 O19        -7.2030   -0.1680    1.1920 o         1 MOL     -0.507417
    127 C41        -7.4910    2.6670   -0.6130 c3        1 MOL     -0.057287
    128 C42        -8.9540    2.2580   -0.4230 ca        1 MOL      0.155605
    129 C43        -9.4750    2.2640    0.8940 ca        1 MOL     -0.328757
    130 C44        -9.6800    1.9400   -1.5740 ca        1 MOL     -0.328757
    131 C45       -10.6730    1.6360    1.1220 ca        1 MOL     -0.132713
    132 C46       -10.9410    1.4240   -1.3730 ca        1 MOL     -0.132713
    133 C47       -11.4080    1.2020   -0.0300 ca        1 MOL      0.220824
    134 O20       -12.5950    0.5590    0.1370 oh        1 MOL     -0.465592
    135 H56        -5.1930    3.2460   -0.7080 hn        1 MOL      0.156276
    136 H57        -6.6260    2.3940    1.1600 h1        1 MOL     -0.036363
    137 H58        -7.2600    2.4590   -1.6610 hc        1 MOL      0.012655
    138 H59        -7.5540    3.7510   -0.4800 hc        1 MOL      0.012655
    139 H60        -8.8490    2.6900    1.6640 ha        1 MOL      0.186883
    140 H61        -9.3020    2.0340   -2.5750 ha        1 MOL      0.186883
    141 H62       -11.0180    1.5990    2.1390 ha        1 MOL      0.128621
    142 H63       -11.5750    1.1610   -2.2030 ha        1 MOL      0.128621
    143 H64       -12.9710    0.3970   -0.7250 ho        1 MOL      0.338527
    144 N13        -6.1120   -0.3130   -0.8110 n         1 MOL     -0.330478
    145 C48        -6.1330   -1.7660   -0.8900 c3        1 MOL     -0.019846
    146 C49        -5.4220   -2.4230    0.2630 c         1 MOL      0.420661
    147 O21        -5.9000   -3.3870    0.8900 o         1 MOL     -0.508498
    148 C50        -5.6240   -2.1970   -2.3160 c3        1 MOL      0.179484
    149 C51        -6.5090   -1.7730   -3.5240 c3        1 MOL     -0.263095
    150 C52        -5.9520   -2.1180   -4.9070 c         1 MOL      0.739211
    151 O22        -6.1920   -1.3680   -5.8580 o         1 MOL     -0.738759
    152 O23        -5.2050   -3.1130   -5.1090 o         1 MOL     -0.738759
    153 H65        -5.6300    0.2480   -1.4980 hn        1 MOL      0.217650
    154 H66        -7.1890   -2.0400   -0.8520 h1        1 MOL      0.058922
    155 H67        -5.6490   -3.2820   -2.3350 hc        1 MOL     -0.009970
    156 H68        -4.5670   -1.9330   -2.4270 hc        1 MOL     -0.009970
    157 H69        -6.7740   -0.7180   -3.5060 hc        1 MOL      0.003362
    158 H70        -7.4270   -2.3550   -3.4290 hc        1 MOL      0.003362
    159 N14        -4.1370   -1.9810    0.5480 n         1 MOL     -0.342867
    160 C53        -3.2650   -2.3970    1.6790 c3        1 MOL     -0.175032
    161 C54        -3.9220   -2.1200    3.0680 c         1 MOL      0.392535
    162 O24        -3.5330   -2.8210    4.0680 o         1 MOL     -0.577245
    163 C55        -1.9280   -1.6420    1.5830 c3        1 MOL      0.094807
    164 C56        -1.2430   -1.9210    0.2670 c3        1 MOL     -0.022347
    165 C57         0.1090   -1.1760    0.1020 c         1 MOL      0.510711
    166 O25         1.1500   -1.7930   -0.2070 o         1 MOL     -0.642478
    167 O26         0.1050    0.0480    0.1020 o         1 MOL     -0.642478
    168 H71        -3.8400   -1.1270    0.0890 hn        1 MOL      0.220348
    169 H72        -3.2740   -3.4880    1.6340 h1        1 MOL      0.182575
    170 H73        -1.2700   -1.9110    2.4170 hc        1 MOL      0.030640
    171 H74        -2.0250   -0.5540    1.5640 hc        1 MOL      0.030640
    172 H75        -1.9200   -1.5890   -0.5250 hc        1 MOL      0.018759
    173 H76        -1.1720   -3.0070    0.2260 hc        1 MOL      0.018759
    174 N15        -4.7940   -1.1330    3.1960 n         1 MOL      0.087759
    175 C58        -5.5730   -0.7530    4.4410 c3        1 MOL     -0.279233
    176 H77        -5.2900   -1.4120    5.2620 h1        1 MOL      0.100587
    177 H78        -5.3470    0.2790    4.7110 h1        1 MOL      0.100587
    178 H79        -6.6410   -0.8530    4.2470 h1        1 MOL      0.100587
    179 H80        -5.0270   -0.6560    2.3240 hn        1 MOL     -0.033761
    180 Ca1         2.5370    0.3100   -1.0000 Ca        1 MOL      1.692787
    181 O27         1.2540    2.3040   -2.1780 oh        1 MOL     -0.846629
    182 H81         1.7610    2.8400   -2.7850 ho        1 MOL      0.407055
    183 H82         0.6980    1.7520   -2.7350 ho        1 MOL      0.407055
@<TRIPOS>BOND
     1    1    2 1   
     2    1    4 1   
     3    1    5 1   
     4    1    6 1   
     5    2    3 2   
     6    2    7 1   
     7    7    8 1   
     8    7   15 1   
     9    8    9 1   
    10    8   11 1   
    11    8   16 1   
    12    9   10 2   
    13    9   19 1   
    14   11   12 1   
    15   11   17 1   
    16   11   18 1   
    17   12   13 1   
    18   12   14 1   
    19   19   20 1   
    20   19   27 1   
    21   20   21 1   
    22   20   23 1   
    23   20   28 1   
    24   21   22 2   
    25   21   38 1   
    26   23   24 1   
    27   23   25 1   
    28   23   29 1   
    29   24   26 1   
    30   24   30 1   
    31   24   31 1   
    32   25   32 1   
    33   25   33 1   
    34   25   34 1   
    35   26   35 1   
    36   26   36 1   
    37   26   37 1   
    38   38   39 1   
    39   38   46 1   
    40   39   40 1   
    41   39   42 1   
    42   39   47 1   
    43   40   41 2   
    44   40   50 1   
    45   42   43 1   
    46   42   48 1   
    47   42   49 1   
    48   43   44 1   
    49   43   45 1   
    50   50   51 1   
    51   50   54 1   
    52   51   52 1   
    53   51   55 1   
    54   51   56 1   
    55   52   53 2   
    56   52   57 1   
    57   57   58 1   
    58   57   65 1   
    59   58   59 1   
    60   58   61 1   
    61   58   66 1   
    62   59   60 2   
    63   59   69 1   
    64   61   62 1   
    65   61   67 1   
    66   61   68 1   
    67   62   63 1   
    68   62   64 1   
    69   69   70 1   
    70   69   73 1   
    71   70   71 1   
    72   70   74 1   
    73   70   75 1   
    74   71   72 2   
    75   71   76 1   
    76   76   77 1   
    77   76   85 1   
    78   77   78 1   
    79   77   80 1   
    80   77   86 1   
    81   78   79 2   
    82   78   93 1   
    83   80   81 1   
    84   80   87 1   
    85   80   88 1   
    86   81   82 1   
    87   81   89 1   
    88   81   90 1   
    89   82   83 1   
    90   82   84 2   
    91   83   91 1   
    92   83   92 1   
    93   93   94 1   
    94   93  100 1   
    95   94   95 1   
    96   94   97 1   
    97   94  101 1   
    98   95   96 2   
    99   95  109 1   
   100   97   98 1   
   101   97   99 1   
   102   97  102 1   
   103   98  103 1   
   104   98  104 1   
   105   98  105 1   
   106   99  106 1   
   107   99  107 1   
   108   99  108 1   
   109  109  110 1   
   110  109  117 1   
   111  110  111 1   
   112  110  113 1   
   113  110  118 1   
   114  111  112 2   
   115  111  123 1   
   116  113  114 1   
   117  113  119 1   
   118  113  120 1   
   119  114  115 1   
   120  114  116 2   
   121  115  121 1   
   122  115  122 1   
   123  123  124 1   
   124  123  135 1   
   125  124  125 1   
   126  124  127 1   
   127  124  136 1   
   128  125  126 2   
   129  125  144 1   
   130  127  128 1   
   131  127  137 1   
   132  127  138 1   
   133  128  129 ar  
   134  128  130 ar  
   135  129  131 ar  
   136  129  139 1   
   137  130  132 ar  
   138  130  140 1   
   139  131  133 ar  
   140  131  141 1   
   141  132  133 ar  
   142  132  142 1   
   143  133  134 1   
   144  134  143 1   
   145  144  145 1   
   146  144  153 1   
   147  145  146 1   
   148  145  148 1   
   149  145  154 1   
   150  146  147 2   
   151  146  159 1   
   152  148  149 1   
   153  148  155 1   
   154  148  156 1   
   155  149  150 1   
   156  149  157 1   
   157  149  158 1   
   158  150  151 1   
   159  150  152 1   
   160  159  160 1   
   161  159  168 1   
   162  160  161 1   
   163  160  163 1   
   164  160  169 1   
   165  161  162 2   
   166  161  174 1   
   167  163  164 1   
   168  163  170 1   
   169  163  171 1   
   170  164  165 1   
   171  164  172 1   
   172  164  173 1   
   173  165  166 1   
   174  165  167 1   
   175  174  175 1   
   176  174  179 1   
   177  175  176 1   
   178  175  177 1   
   179  175  178 1   
   180  181  182 1   
   181  181  183 1   
@<TRIPOS>SUBSTRUCTURE
     1 MOL         1 TEMP              0 ****  ****    0 ROOT
