@<TRIPOS>MOLECULE
MOL
  189   185     1     0     0
SMALL
resp


@<TRIPOS>ATOM
      1 C1          0.8230   -2.1950    6.3700 c3        1 MOL     -0.468660
      2 C2          1.2070   -2.2100    4.8920 c         1 MOL      0.596844
      3 O1          1.1000   -1.1100    4.2350 o         1 MOL     -0.555109
      4 H1         -0.2230   -2.4850    6.4760 hc        1 MOL      0.132814
      5 H2          1.4520   -2.8970    6.9180 hc        1 MOL      0.132814
      6 H3          0.9620   -1.1900    6.7720 hc        1 MOL      0.132814
      7 N1          1.7260   -3.3160    4.3320 n         1 MOL     -0.456717
      8 C3          2.2650   -3.4190    2.9380 c3        1 MOL      0.113138
      9 C4          1.8710   -4.6800    2.1860 c         1 MOL      0.524934
     10 O2          1.7040   -5.8510    2.7150 o         1 MOL     -0.605772
     11 C5          3.7930   -3.2100    2.9700 c3        1 MOL     -0.347931
     12 C6          4.3600   -2.8960    1.6100 c         1 MOL      0.727281
     13 O3          3.6390   -2.4870    0.7020 o         1 MOL     -0.654936
     14 O4          5.5700   -2.9960    1.4630 o         1 MOL     -0.654936
     15 H4          1.5390   -4.1750    4.8200 hn        1 MOL      0.278100
     16 H5          1.8960   -2.5930    2.3270 h1        1 MOL      0.160782
     17 H6          4.2700   -4.1640    3.1580 hc        1 MOL      0.080926
     18 H7          4.0910   -2.5920    3.8090 hc        1 MOL      0.080926
     19 N2          1.7220   -4.5320    0.8770 n         1 MOL     -0.385151
     20 C7          1.6890   -5.5860   -0.0630 c3        1 MOL      0.031749
     21 C8          2.4040   -5.4420   -1.4230 c         1 MOL      0.419664
     22 O5          2.3380   -6.3010   -2.2890 o         1 MOL     -0.492172
     23 C9          0.2060   -6.0860   -0.1890 c3        1 MOL      0.240751
     24 C10        -0.1350   -7.4380   -0.7860 c3        1 MOL      0.016627
     25 C11        -0.5440   -4.9900   -1.0330 c3        1 MOL     -0.667868
     26 C12         0.3670   -8.5680    0.0420 c3        1 MOL     -0.057347
     27 H8          1.8930   -3.5940    0.5220 hn        1 MOL      0.203811
     28 H9          2.1890   -6.4040    0.4610 h1        1 MOL      0.069716
     29 H10        -0.1620   -6.1570    0.8370 hc        1 MOL      0.021846
     30 H11         0.3930   -7.5480   -1.7260 hc        1 MOL     -0.010884
     31 H12        -1.2250   -7.3950   -0.9010 hc        1 MOL     -0.010884
     32 H13        -0.3500   -5.0320   -2.0970 hc        1 MOL      0.186833
     33 H14        -1.6070   -4.9750   -0.8090 hc        1 MOL      0.186833
     34 H15        -0.1440   -4.0090   -0.7490 hc        1 MOL      0.186833
     35 H16         0.0000   -8.4540    1.0650 hc        1 MOL     -0.006473
     36 H17         0.0070   -9.5590   -0.2570 hc        1 MOL     -0.006473
     37 H18         1.4530   -8.6220    0.1150 hc        1 MOL     -0.006473
     38 N3          3.0920   -4.2730   -1.5440 n         1 MOL     -0.489403
     39 C13         3.7250   -3.9010   -2.8290 c3        1 MOL      0.153354
     40 C14         5.0970   -3.2530   -2.7600 c         1 MOL      0.351500
     41 O6          5.8330   -3.1660   -3.7370 o         1 MOL     -0.556430
     42 C15         2.8200   -3.0550   -3.6150 c3        1 MOL     -0.206474
     43 C16         2.4980   -1.7070   -3.0280 c         1 MOL      0.739013
     44 O7          3.1420   -1.2010   -2.0600 o         1 MOL     -0.699172
     45 O8          1.5170   -1.0730   -3.5680 o         1 MOL     -0.699172
     46 H19         3.0540   -3.6580   -0.7420 hn        1 MOL      0.364075
     47 H20         3.9140   -4.8050   -3.4150 h1        1 MOL      0.066960
     48 H21         1.8580   -3.5370   -3.7720 hc        1 MOL      0.056878
     49 H22         3.3390   -2.8730   -4.5550 hc        1 MOL      0.056878
     50 N4          5.5760   -2.8360   -1.6170 n         1 MOL     -0.100089
     51 C17         6.9070   -2.1850   -1.4490 c3        1 MOL     -0.225297
     52 C18         7.0870   -0.7490   -1.9340 c         1 MOL      0.549953
     53 O9          8.2190   -0.3030   -2.0130 o         1 MOL     -0.605032
     54 H23         5.1030   -2.9160   -0.7300 hn        1 MOL      0.107442
     55 H24         7.6670   -2.7720   -1.9670 h1        1 MOL      0.101335
     56 H25         7.1000   -2.1650   -0.3780 h1        1 MOL      0.101335
     57 N5          6.0680   -0.0310   -2.3900 n         1 MOL     -0.215317
     58 C19         6.2000    1.3020   -2.9780 c3        1 MOL     -0.095985
     59 C20         6.6980    2.4780   -2.1480 c         1 MOL      0.507933
     60 O10         7.1150    3.5070   -2.6570 o         1 MOL     -0.565576
     61 C21         4.7510    1.6500   -3.4260 c3        1 MOL     -0.200544
     62 C22         3.6540    1.9910   -2.3810 c         1 MOL      0.608265
     63 O11         3.8030    1.6670   -1.1390 o         1 MOL     -0.630018
     64 O12         2.6050    2.4680   -2.9170 o         1 MOL     -0.630018
     65 H26         5.1430   -0.4340   -2.3230 hn        1 MOL      0.241108
     66 H27         6.7880    1.4050   -3.8890 h1        1 MOL      0.078306
     67 H28         4.4300    0.8370   -4.0690 hc        1 MOL      0.082499
     68 H29         4.7860    2.4680   -4.1440 hc        1 MOL      0.082499
     69 N6          6.4390    2.3250   -0.8460 n         1 MOL     -0.207474
     70 C23         6.8860    3.2130    0.2880 c3        1 MOL     -0.286746
     71 C24         5.8120    4.2310    0.6400 c         1 MOL      0.576963
     72 O13         6.0590    5.3170    1.1870 o         1 MOL     -0.614677
     73 H30         5.7920    1.5920   -0.6140 hn        1 MOL      0.166119
     74 H31         7.6660    3.9010   -0.0440 h1        1 MOL      0.126592
     75 H32         7.1840    2.7110    1.2130 h1        1 MOL      0.126592
     76 N7          4.5600    3.8420    0.5790 n         1 MOL     -0.283807
     77 C25         3.3870    4.6200    1.0930 c3        1 MOL     -0.139183
     78 C26         2.2110    3.7010    1.5430 c         1 MOL      0.425104
     79 O14         2.1400    2.5620    0.9940 o         1 MOL     -0.496150
     80 C27         2.8340    5.4040   -0.0730 c3        1 MOL      0.232952
     81 C28         3.5020    6.7390   -0.3240 c3        1 MOL     -0.473706
     82 C29         2.6780    7.7640   -1.0510 c         1 MOL      0.709608
     83 N8          2.4430    7.5530   -2.3090 n         1 MOL     -0.761428
     84 O15         2.1510    8.7170   -0.5170 o         1 MOL     -0.587447
     85 H33         4.3640    2.9620    0.1260 hn        1 MOL      0.283270
     86 H34         3.5860    5.4030    1.8240 h1        1 MOL      0.092960
     87 H35         1.8000    5.6590    0.1600 hc        1 MOL      0.005279
     88 H36         2.7760    4.7290   -0.9210 hc        1 MOL      0.005279
     89 H37         4.4390    6.5830   -0.8540 hc        1 MOL      0.127290
     90 H38         3.8400    7.0630    0.6680 hc        1 MOL      0.127290
     91 H39         2.9610    6.8000   -2.7490 hn        1 MOL      0.350721
     92 H40         1.9550    8.1590   -2.9490 hn        1 MOL      0.350721
     93 N9          1.2890    4.0490    2.4720 n         1 MOL     -0.317203
     94 C30         0.1010    3.1800    2.7870 c3        1 MOL     -0.062996
     95 C31        -1.0830    3.6830    2.0060 c         1 MOL      0.558638
     96 O16        -1.2150    4.8930    1.8140 o         1 MOL     -0.571310
     97 C32        -0.0720    3.1040    4.2770 c3        1 MOL      0.047389
     98 C33        -1.3090    2.4080    4.8510 c3        1 MOL     -0.140704
     99 C34         1.0460    2.3670    4.9440 c3        1 MOL     -0.140704
    100 H41         1.2200    4.9800    2.8580 hn        1 MOL      0.244135
    101 H42         0.2910    2.1410    2.5570 h1        1 MOL      0.229470
    102 H43        -0.0500    4.0770    4.7520 hc        1 MOL      0.012009
    103 H44        -1.4460    2.4470    5.9280 hc        1 MOL      0.028449
    104 H45        -2.2010    2.9770    4.6080 hc        1 MOL      0.028449
    105 H46        -1.4710    1.3980    4.4640 hc        1 MOL      0.028449
    106 H47         0.9260    2.4740    6.0190 hc        1 MOL      0.028449
    107 H48         0.9450    1.2960    4.7550 hc        1 MOL      0.028449
    108 H49         2.0000    2.8090    4.6420 hc        1 MOL      0.028449
    109 N10        -1.9900    2.8090    1.5370 n         1 MOL     -0.375125
    110 C35        -3.1110    3.0980    0.6040 c3        1 MOL      0.286031
    111 C36        -4.3830    2.3320    0.9530 c         1 MOL      0.507188
    112 O17        -4.4110    1.3900    1.6940 o         1 MOL     -0.570719
    113 C37        -2.5480    2.8250   -0.7940 c3        1 MOL     -0.143379
    114 C38        -2.8980    1.4960   -1.3770 c         1 MOL      0.447180
    115 N11        -1.9780    0.5740   -1.3670 n         1 MOL     -0.632492
    116 O18        -4.0110    1.3090   -1.8620 o         1 MOL     -0.492631
    117 H50        -1.9050    1.8260    1.7250 hn        1 MOL      0.115704
    118 H51        -3.2890    4.1630    0.7690 h1        1 MOL     -0.020108
    119 H52        -1.4610    2.8630   -0.7160 hc        1 MOL      0.052997
    120 H53        -3.0150    3.6340   -1.3400 hc        1 MOL      0.052997
    121 H54        -1.0750    0.7070   -0.9410 hn        1 MOL      0.389397
    122 H55        -2.2690   -0.2430   -1.8830 hn        1 MOL      0.389397
    123 N12        -5.4880    2.6970    0.3500 n         1 MOL     -0.477591
    124 C39        -6.8680    2.2420    0.5610 c3        1 MOL      0.059328
    125 C40        -7.0940    0.7100    0.4680 c         1 MOL      0.562330
    126 O19        -7.9400    0.1500    1.1950 o         1 MOL     -0.595482
    127 C41        -7.7960    3.0600   -0.3940 c3        1 MOL     -0.032965
    128 C42        -7.9120    2.5380   -1.8100 ca        1 MOL     -0.003417
    129 C43        -9.0610    1.8070   -2.2490 ca        1 MOL     -0.139098
    130 C44        -6.8080    2.6410   -2.7380 ca        1 MOL     -0.139098
    131 C45        -9.0280    1.2010   -3.5320 ca        1 MOL     -0.342710
    132 C46        -6.8570    2.1170   -4.0350 ca        1 MOL     -0.342710
    133 C47        -7.9690    1.4170   -4.4610 ca        1 MOL      0.358052
    134 O20        -8.0120    0.7000   -5.6050 oh        1 MOL     -0.425596
    135 H56        -5.4550    3.4440   -0.3380 hn        1 MOL      0.269757
    136 H57        -7.1060    2.5920    1.5620 h1        1 MOL      0.072667
    137 H58        -7.4650    4.1020   -0.3720 hc        1 MOL      0.017255
    138 H59        -8.7340    3.0630    0.1600 hc        1 MOL      0.017255
    139 H60        -9.9370    1.6720   -1.6440 ha        1 MOL      0.115908
    140 H61        -5.8900    3.0470   -2.3380 ha        1 MOL      0.115908
    141 H62        -9.8170    0.5020   -3.7370 ha        1 MOL      0.187878
    142 H63        -5.9510    2.1930   -4.6250 ha        1 MOL      0.187878
    143 H64        -8.8770    0.3180   -5.7520 ho        1 MOL      0.327926
    144 N13        -6.3230   -0.0310   -0.3650 n         1 MOL     -0.356170
    145 C48        -6.2990   -1.4980   -0.3640 c3        1 MOL     -0.168689
    146 C49        -5.4560   -2.0750    0.7290 c         1 MOL      0.437353
    147 O21        -5.5720   -3.2030    1.0300 o         1 MOL     -0.536468
    148 C50        -5.7120   -1.9490   -1.6670 c3        1 MOL      0.196294
    149 C51        -6.6210   -1.6760   -2.8300 c3        1 MOL     -0.216441
    150 C52        -6.0690   -2.3650   -4.0780 c         1 MOL      0.757061
    151 O22        -4.9090   -2.1800   -4.4570 o         1 MOL     -0.747804
    152 O23        -6.8020   -3.1400   -4.7290 o         1 MOL     -0.747804
    153 H65        -5.6520    0.4300   -0.9660 hn        1 MOL      0.421647
    154 H66        -7.3350   -1.8440   -0.3170 h1        1 MOL      0.140351
    155 H67        -5.6180   -3.0410   -1.6390 hc        1 MOL     -0.029279
    156 H68        -4.7920   -1.4140   -1.8710 hc        1 MOL     -0.029279
    157 H69        -6.6590   -0.5900   -2.9580 hc        1 MOL      0.004538
    158 H70        -7.6290   -2.0360   -2.6420 hc        1 MOL      0.004538
    159 N14        -4.6430   -1.2150    1.4330 n         1 MOL     -0.159287
    160 C53        -3.8660   -1.5880    2.6780 c3        1 MOL     -0.096768
    161 C54        -4.5680   -1.1910    3.9840 c         1 MOL      0.396473
    162 O24        -4.0470   -1.5050    5.0850 o         1 MOL     -0.569213
    163 C55        -2.3970   -1.0160    2.6620 c3        1 MOL     -0.130770
    164 C56        -1.3580   -1.9140    1.8270 c3        1 MOL     -0.130333
    165 C57        -0.1900   -1.1630    1.1330 c         1 MOL      0.654427
    166 O25        -0.0250    0.0560    1.2890 o         1 MOL     -0.735604
    167 O26         0.5590   -1.7860    0.3180 o         1 MOL     -0.735604
    168 H71        -4.5760   -0.2830    1.0660 hn        1 MOL      0.107779
    169 H72        -3.8590   -2.6790    2.7220 h1        1 MOL      0.130545
    170 H73        -2.0220   -0.9060    3.6860 hc        1 MOL      0.143767
    171 H74        -2.3620   -0.0600    2.1470 hc        1 MOL      0.143767
    172 H75        -1.9800   -2.3700    1.0620 hc        1 MOL      0.027446
    173 H76        -0.9070   -2.7290    2.4010 hc        1 MOL      0.027446
    174 N15        -5.6430   -0.4290    3.9250 n         1 MOL     -0.096664
    175 C58        -6.4930   -0.1550    5.0800 c3        1 MOL     -0.191171
    176 H77        -7.2880   -0.9000    5.1310 h1        1 MOL      0.076395
    177 H78        -5.8950   -0.2010    5.9910 h1        1 MOL      0.076395
    178 H79        -6.9310    0.8380    4.9820 h1        1 MOL      0.076395
    179 H80        -5.9730   -0.2390    2.9930 hn        1 MOL      0.186369
    180 Ca1         2.4970   -0.0460    0.0850 Ca        1 MOL      1.593812
    181 O27         5.0330    0.0510    0.8440 oh        1 MOL     -0.835197
    182 H81         4.9920   -0.9050    0.9060 ho        1 MOL      0.404272
    183 H82         5.6000    0.3130    1.5640 ho        1 MOL      0.404272
    184 O28         2.9630    0.1120    2.7330 oh        1 MOL     -0.835197
    185 H83         2.1540   -0.2180    3.1290 ho        1 MOL      0.404272
    186 H84         3.5930    0.1220    3.4500 ho        1 MOL      0.404272
    187 O29         0.8450    0.9780   -1.6330 oh        1 MOL     -0.835197
    188 H85         1.5340    1.5020   -2.0380 ho        1 MOL      0.404272
    189 H86         0.4030    0.5420   -2.3590 ho        1 MOL      0.404272
@<TRIPOS>BOND
     1    1    2 1   
     2    1    4 1   
     3    1    5 1   
     4    1    6 1   
     5    2    3 2   
     6    2    7 1   
     7    7    8 1   
     8    7   15 1   
     9    8    9 1   
    10    8   11 1   
    11    8   16 1   
    12    9   10 2   
    13    9   19 1   
    14   11   12 1   
    15   11   17 1   
    16   11   18 1   
    17   12   13 1   
    18   12   14 1   
    19   19   20 1   
    20   19   27 1   
    21   20   21 1   
    22   20   23 1   
    23   20   28 1   
    24   21   22 2   
    25   21   38 1   
    26   23   24 1   
    27   23   25 1   
    28   23   29 1   
    29   24   26 1   
    30   24   30 1   
    31   24   31 1   
    32   25   32 1   
    33   25   33 1   
    34   25   34 1   
    35   26   35 1   
    36   26   36 1   
    37   26   37 1   
    38   38   39 1   
    39   38   46 1   
    40   39   40 1   
    41   39   42 1   
    42   39   47 1   
    43   40   41 2   
    44   40   50 1   
    45   42   43 1   
    46   42   48 1   
    47   42   49 1   
    48   43   44 1   
    49   43   45 1   
    50   50   51 1   
    51   50   54 1   
    52   51   52 1   
    53   51   55 1   
    54   51   56 1   
    55   52   53 2   
    56   52   57 1   
    57   57   58 1   
    58   57   65 1   
    59   58   59 1   
    60   58   61 1   
    61   58   66 1   
    62   59   60 2   
    63   59   69 1   
    64   61   62 1   
    65   61   67 1   
    66   61   68 1   
    67   62   63 1   
    68   62   64 1   
    69   69   70 1   
    70   69   73 1   
    71   70   71 1   
    72   70   74 1   
    73   70   75 1   
    74   71   72 2   
    75   71   76 1   
    76   76   77 1   
    77   76   85 1   
    78   77   78 1   
    79   77   80 1   
    80   77   86 1   
    81   78   79 2   
    82   78   93 1   
    83   80   81 1   
    84   80   87 1   
    85   80   88 1   
    86   81   82 1   
    87   81   89 1   
    88   81   90 1   
    89   82   83 1   
    90   82   84 2   
    91   83   91 1   
    92   83   92 1   
    93   93   94 1   
    94   93  100 1   
    95   94   95 1   
    96   94   97 1   
    97   94  101 1   
    98   95   96 2   
    99   95  109 1   
   100   97   98 1   
   101   97   99 1   
   102   97  102 1   
   103   98  103 1   
   104   98  104 1   
   105   98  105 1   
   106   99  106 1   
   107   99  107 1   
   108   99  108 1   
   109  109  110 1   
   110  109  117 1   
   111  110  111 1   
   112  110  113 1   
   113  110  118 1   
   114  111  112 2   
   115  111  123 1   
   116  113  114 1   
   117  113  119 1   
   118  113  120 1   
   119  114  115 1   
   120  114  116 2   
   121  115  121 1   
   122  115  122 1   
   123  123  124 1   
   124  123  135 1   
   125  124  125 1   
   126  124  127 1   
   127  124  136 1   
   128  125  126 2   
   129  125  144 1   
   130  127  128 1   
   131  127  137 1   
   132  127  138 1   
   133  128  129 ar  
   134  128  130 ar  
   135  129  131 ar  
   136  129  139 1   
   137  130  132 ar  
   138  130  140 1   
   139  131  133 ar  
   140  131  141 1   
   141  132  133 ar  
   142  132  142 1   
   143  133  134 1   
   144  134  143 1   
   145  144  145 1   
   146  144  153 1   
   147  145  146 1   
   148  145  148 1   
   149  145  154 1   
   150  146  147 2   
   151  146  159 1   
   152  148  149 1   
   153  148  155 1   
   154  148  156 1   
   155  149  150 1   
   156  149  157 1   
   157  149  158 1   
   158  150  151 1   
   159  150  152 1   
   160  159  160 1   
   161  159  168 1   
   162  160  161 1   
   163  160  163 1   
   164  160  169 1   
   165  161  162 2   
   166  161  174 1   
   167  163  164 1   
   168  163  170 1   
   169  163  171 1   
   170  164  165 1   
   171  164  172 1   
   172  164  173 1   
   173  165  166 1   
   174  165  167 1   
   175  174  175 1   
   176  174  179 1   
   177  175  176 1   
   178  175  177 1   
   179  175  178 1   
   180  181  182 1   
   181  181  183 1   
   182  184  185 1   
   183  184  186 1   
   184  187  188 1   
   185  187  189 1   
@<TRIPOS>SUBSTRUCTURE
     1 MOL         1 TEMP              0 ****  ****    0 ROOT
