@<TRIPOS>MOLECULE
MOL
  189   185     1     0     0
SMALL
resp


@<TRIPOS>ATOM
      1 C1          0.5480    2.5220    5.1570 c3        1 MOL     -0.244251
      2 C2         -0.1350    2.5590    3.7270 c         1 MOL      0.585543
      3 O1          0.3720    3.0460    2.7740 o         1 MOL     -0.616437
      4 H1          1.4370    3.1530    5.1500 hc        1 MOL      0.065312
      5 H2         -0.1540    2.8910    5.9050 hc        1 MOL      0.065312
      6 H3          0.8330    1.4980    5.3980 hc        1 MOL      0.065312
      7 N1         -1.3150    1.9800    3.6230 n         1 MOL     -0.553170
      8 C3         -2.0400    1.6180    2.3610 c3        1 MOL      0.180448
      9 C4         -2.8940    2.8310    1.8280 c         1 MOL      0.380065
     10 O2         -4.1280    2.9380    2.0350 o         1 MOL     -0.484107
     11 C5         -2.8680    0.3320    2.6260 c3        1 MOL     -0.103472
     12 C6         -3.7530   -0.0360    1.4960 c         1 MOL      0.560408
     13 O3         -3.3870    0.3870    0.3470 o         1 MOL     -0.565269
     14 O4         -4.7180   -0.7920    1.7890 o         1 MOL     -0.565269
     15 H4         -1.7340    1.5780    4.4490 hn        1 MOL      0.306472
     16 H5         -1.3670    1.3230    1.5600 h1        1 MOL      0.138822
     17 H6         -3.4890    0.4070    3.5130 hc        1 MOL      0.006712
     18 H7         -2.1570   -0.4750    2.7250 hc        1 MOL      0.006712
     19 N2         -2.2240    3.7710    1.1520 n         1 MOL     -0.324635
     20 C7         -2.7000    5.1190    0.7340 c3        1 MOL      0.045280
     21 C8         -3.3260    5.1270   -0.6490 c         1 MOL      0.437314
     22 O5         -4.1660    6.0230   -0.8770 o         1 MOL     -0.560161
     23 C9         -1.5170    6.0950    0.8220 c3        1 MOL     -0.140366
     24 C10        -0.8620    6.1650    2.1660 c3        1 MOL      0.189190
     25 C11        -0.1910    7.4480    2.4830 c3        1 MOL     -0.052425
     26 C12         0.0480    7.4510    3.9750 c3        1 MOL      0.009318
     27 N3          1.3880    6.9060    4.3550 n4        1 MOL     -0.400425
     28 H8         -1.2450    3.5890    0.9780 hn        1 MOL      0.291133
     29 H9         -3.4810    5.4830    1.3950 h1        1 MOL      0.100843
     30 H10        -1.9510    7.0400    0.5180 hc        1 MOL      0.034103
     31 H11        -0.7900    5.8000    0.0660 hc        1 MOL      0.034103
     32 H12        -0.0820    5.4040    2.2080 hc        1 MOL     -0.011445
     33 H13        -1.6480    5.9140    2.8830 hc        1 MOL     -0.011445
     34 H14        -0.8590    8.2300    2.1240 hc        1 MOL      0.039825
     35 H15         0.7200    7.5660    1.8910 hc        1 MOL      0.039825
     36 H16        -0.7420    6.8970    4.4770 hx        1 MOL      0.078741
     37 H17         0.0330    8.4640    4.3720 hx        1 MOL      0.078741
     38 H18         1.4190    6.6900    5.3430 hn        1 MOL      0.341279
     39 H19         1.5290    5.9930    3.9310 hn        1 MOL      0.341279
     40 H20         2.1040    7.5670    4.1090 hn        1 MOL      0.341279
     41 N4         -3.2310    4.1020   -1.5280 n         1 MOL     -0.291491
     42 C13        -4.2770    3.9350   -2.6470 c3        1 MOL     -0.004846
     43 C14        -5.5430    3.0290   -2.2050 c         1 MOL      0.302974
     44 O6         -6.5160    2.9000   -2.9700 o         1 MOL     -0.486775
     45 C15        -3.6200    3.2980   -3.8570 c3        1 MOL     -0.191093
     46 C16        -2.7840    2.0340   -3.7430 c         1 MOL      0.849129
     47 O7         -2.1580    1.6580   -4.8040 o         1 MOL     -0.738690
     48 O8         -2.6350    1.4250   -2.6850 o         1 MOL     -0.738690
     49 H21        -2.6090    3.3370   -1.3190 hn        1 MOL      0.205237
     50 H22        -4.6170    4.9130   -3.0080 h1        1 MOL      0.120745
     51 H23        -2.8780    3.9960   -4.2390 hc        1 MOL      0.041757
     52 H24        -4.3610    3.0810   -4.6290 hc        1 MOL      0.041757
     53 N5         -5.5000    2.5260   -1.0050 n         1 MOL      0.221216
     54 C17        -6.6160    1.9130   -0.2010 c3        1 MOL     -0.192091
     55 C18        -7.2160    0.7310   -0.8790 c         1 MOL      0.590559
     56 O9         -8.2040    0.7820   -1.5780 o         1 MOL     -0.540325
     57 H25        -4.6080    2.5200   -0.5320 hn        1 MOL     -0.115060
     58 H26        -7.3540    2.7120   -0.1310 h1        1 MOL      0.080636
     59 H27        -6.2440    1.7530    0.8090 h1        1 MOL      0.080636
     60 N6         -6.4850   -0.3780   -0.7590 n         1 MOL     -0.447036
     61 C19        -6.7560   -1.6420   -1.4640 c3        1 MOL     -0.000404
     62 C20        -6.7580   -2.9250   -0.5910 c         1 MOL      0.479169
     63 O10        -6.8000   -4.0570   -1.1190 o         1 MOL     -0.524675
     64 C21        -5.8870   -1.7400   -2.7380 c3        1 MOL     -0.222069
     65 C22        -4.3730   -1.7070   -2.4280 c         1 MOL      0.715808
     66 O11        -3.9740   -2.2530   -1.3570 o         1 MOL     -0.693135
     67 O12        -3.4640   -1.2500   -3.1840 o         1 MOL     -0.693135
     68 H28        -5.7310   -0.3130   -0.0890 hn        1 MOL      0.160503
     69 H29        -7.7610   -1.6280   -1.8940 h1        1 MOL      0.116257
     70 H30        -6.2170   -0.9860   -3.4580 hc        1 MOL      0.090642
     71 H31        -6.0230   -2.7250   -3.1850 hc        1 MOL      0.090642
     72 N7         -6.6780   -2.7310    0.7260 n         1 MOL     -0.306684
     73 C23        -6.4990   -3.7500    1.7540 c3        1 MOL     -0.410823
     74 C24        -5.1850   -4.5260    1.8290 c         1 MOL      0.530044
     75 O13        -5.0270   -5.6050    2.4260 o         1 MOL     -0.558499
     76 H32        -6.2770   -1.8300    0.9330 hn        1 MOL      0.277426
     77 H33        -7.2130   -4.5340    1.5260 h1        1 MOL      0.189875
     78 H34        -6.5620   -3.2650    2.7300 h1        1 MOL      0.189875
     79 N8         -4.1590   -4.0530    1.0580 n         1 MOL     -0.126598
     80 C25        -2.8420   -4.6090    0.9650 c3        1 MOL     -0.314506
     81 C26        -1.6290   -3.6660    1.0490 c         1 MOL      0.755314
     82 O14        -1.6840   -2.5550    0.5100 o         1 MOL     -0.557950
     83 C27        -2.7540   -5.5330   -0.2840 c3        1 MOL      0.439053
     84 C28        -3.8080   -6.6670   -0.4480 c3        1 MOL     -0.485385
     85 O15        -2.8840   -4.8670   -1.4900 oh        1 MOL     -0.606294
     86 H35        -4.3670   -3.1930    0.5550 hn        1 MOL      0.178205
     87 H36        -2.7840   -5.3080    1.7930 h1        1 MOL      0.102974
     88 H37        -1.7850   -6.0320   -0.2430 h1        1 MOL     -0.016568
     89 H38        -3.5040   -4.1660   -1.2910 ho        1 MOL      0.439527
     90 H39        -4.7790   -6.1880   -0.5920 hc        1 MOL      0.124999
     91 H40        -3.6950   -7.2930   -1.3320 hc        1 MOL      0.124999
     92 H41        -3.8460   -7.2550    0.4690 hc        1 MOL      0.124999
     93 N9         -0.5030   -4.0200    1.5920 n         1 MOL     -0.689230
     94 C29         0.6370   -3.1810    1.8400 c3        1 MOL     -0.048208
     95 C30         1.8160   -3.6630    1.0520 c         1 MOL      0.746480
     96 O16         2.2980   -4.8180    1.2110 o         1 MOL     -0.600229
     97 C31         0.9800   -3.0600    3.3910 c3        1 MOL      0.387871
     98 C32        -0.1090   -2.3410    4.2380 c3        1 MOL      0.033807
     99 C33         2.2810   -2.3290    3.6520 c3        1 MOL     -0.538392
    100 C34        -0.0130   -2.5560    5.7110 c3        1 MOL     -0.074910
    101 H42        -0.3410   -4.9740    1.8530 hn        1 MOL      0.331073
    102 H43         0.4830   -2.1600    1.4820 h1        1 MOL      0.087040
    103 H44         1.0770   -4.1010    3.7280 hc        1 MOL     -0.053698
    104 H45        -1.0740   -2.7500    3.9460 hc        1 MOL      0.002535
    105 H46         0.0340   -1.2740    4.0440 hc        1 MOL      0.002535
    106 H47         2.3910   -2.1020    4.7180 hc        1 MOL      0.101462
    107 H48         3.1160   -2.9720    3.4090 hc        1 MOL      0.101462
    108 H49         2.2860   -1.3680    3.1370 hc        1 MOL      0.101462
    109 H50        -0.9520   -2.2910    6.1910 hc        1 MOL      0.013927
    110 H51         0.1520   -3.6020    5.9650 hc        1 MOL      0.013927
    111 H52         0.7900   -1.9610    6.1250 hc        1 MOL      0.013927
    112 N10         2.3350   -2.7740    0.1570 n         1 MOL     -0.529097
    113 C35         3.5860   -3.0740   -0.6420 c3        1 MOL     -0.031238
    114 C36         4.8920   -2.7740    0.0470 c         1 MOL      0.344283
    115 O17         4.9370   -1.9820    1.0270 o         1 MOL     -0.359962
    116 C37         3.5360   -2.2590   -1.9740 c3        1 MOL      0.104808
    117 C38         2.3450   -2.4820   -2.8660 c3        1 MOL     -0.232343
    118 O18         3.5010   -0.8940   -1.7510 oh        1 MOL     -0.431127
    119 H53         1.9730   -1.8300    0.1460 hn        1 MOL      0.348546
    120 H54         3.5650   -4.1150   -0.9610 h1        1 MOL      0.111033
    121 H55         4.5070   -2.4570   -2.4410 h1        1 MOL      0.053628
    122 H56         2.5550   -0.7730   -1.7090 ho        1 MOL      0.317339
    123 H57         2.3090   -3.5360   -3.1440 hc        1 MOL      0.077954
    124 H58         1.4550   -2.0980   -2.3530 hc        1 MOL      0.077954
    125 H59         2.3360   -2.0220   -3.8570 hc        1 MOL      0.077954
    126 N11         5.9860   -3.3860   -0.3730 n         1 MOL     -0.231039
    127 C39         7.4040   -3.0130   -0.0850 c3        1 MOL     -0.275479
    128 C40         7.6470   -1.4620   -0.1110 c         1 MOL      0.508823
    129 O19         8.1420   -0.8760    0.8790 o         1 MOL     -0.498946
    130 C41         8.4010   -3.6800   -1.0020 c3        1 MOL      0.348566
    131 C42         8.3730   -5.2260   -0.9180 c3        1 MOL     -0.429246
    132 O20         8.1520   -3.3760   -2.3120 oh        1 MOL     -0.615844
    133 H60         5.7410   -4.0400   -1.1120 hn        1 MOL      0.247404
    134 H61         7.5410   -3.3040    0.9570 h1        1 MOL      0.169193
    135 H62         9.3020   -3.1270   -0.7260 h1        1 MOL      0.028711
    136 H63         8.9300   -2.9960   -2.7300 ho        1 MOL      0.404249
    137 H64         7.4770   -5.6520   -1.3680 hc        1 MOL      0.127881
    138 H65         9.2410   -5.6530   -1.4100 hc        1 MOL      0.127881
    139 H66         8.4060   -5.5680    0.1060 hc        1 MOL      0.127881
    140 N12         7.0930   -0.7980   -1.1490 n         1 MOL     -0.381293
    141 C43         7.1720    0.7060   -1.2840 c3        1 MOL      0.074092
    142 C44         6.3830    1.4610   -0.2040 c         1 MOL      0.100778
    143 O21         6.8620    2.3760    0.4450 o         1 MOL     -0.473243
    144 C45         6.8260    1.1680   -2.6930 c3        1 MOL     -0.257983
    145 C46         6.4810    2.6730   -2.8800 c3        1 MOL      0.127501
    146 C47         6.2510    2.9820   -4.3830 c3        1 MOL     -0.005583
    147 C48         6.2390    4.4610   -4.4680 c3        1 MOL      0.117321
    148 N13         5.9710    4.8570   -5.8930 n4        1 MOL     -0.354182
    149 H67         6.6470   -1.3320   -1.8780 hn        1 MOL      0.273077
    150 H68         8.2360    0.8800   -1.1550 h1        1 MOL      0.122144
    151 H69         5.9820    0.5860   -3.0670 hc        1 MOL      0.069288
    152 H70         7.7530    0.9290   -3.2150 hc        1 MOL      0.069288
    153 H71         7.2990    3.3140   -2.5500 hc        1 MOL      0.002791
    154 H72         5.5930    2.8620   -2.2820 hc        1 MOL      0.002791
    155 H73         5.3180    2.5440   -4.7390 hc        1 MOL      0.017477
    156 H74         7.0910    2.6260   -4.9710 hc        1 MOL      0.017477
    157 H75         7.2260    4.7530   -4.1350 hx        1 MOL      0.058884
    158 H76         5.5510    4.8720   -3.7360 hx        1 MOL      0.058884
    159 H77         6.0110    5.8550   -6.0110 hn        1 MOL      0.307444
    160 H78         6.6610    4.4180   -6.4960 hn        1 MOL      0.307444
    161 H79         5.0740    4.5090   -6.2080 hn        1 MOL      0.307444
    162 N14         5.1330    1.0130    0.0100 n         1 MOL      0.530533
    163 C49         4.2860    1.6320    1.0180 c3        1 MOL     -0.327723
    164 C50         4.7750    1.5180    2.4800 c         1 MOL      0.418349
    165 O22         4.5970    2.4670    3.2610 o         1 MOL     -0.557002
    166 C51         2.8870    0.9730    0.9300 c3        1 MOL      0.023362
    167 C52         2.0790    1.3840   -0.3540 c3        1 MOL     -0.324909
    168 C53         0.7390    0.7340   -0.4790 c         1 MOL      0.751508
    169 O23        -0.3160    1.3780   -0.4500 o         1 MOL     -0.734163
    170 O24         0.5900   -0.4920   -0.4840 o         1 MOL     -0.734163
    171 H80         4.7780    0.1950   -0.4620 hn        1 MOL     -0.121537
    172 H81         4.2970    2.7000    0.7870 h1        1 MOL      0.101369
    173 H82         2.3180    1.3350    1.7820 hc        1 MOL      0.072549
    174 H83         2.9060   -0.1160    0.9940 hc        1 MOL      0.072549
    175 H84         2.7620    1.4210   -1.2070 hc        1 MOL      0.071895
    176 H85         1.8530    2.4340   -0.1730 hc        1 MOL      0.071895
    177 N15         5.4890    0.4700    2.8520 n         1 MOL     -0.051349
    178 C54         6.3900    0.5140    4.0110 c3        1 MOL     -0.328511
    179 H86         7.2640    1.1190    3.7680 h1        1 MOL      0.124164
    180 H87         5.8700    0.9540    4.8610 h1        1 MOL      0.124164
    181 H88         6.7080   -0.4970    4.2640 h1        1 MOL      0.124164
    182 H89         5.5020   -0.3350    2.2420 hn        1 MOL      0.138760
    183 Ca1        -1.8700   -0.6140   -1.3700 Ca        1 MOL      1.680547
    184 O25        -0.9480   -2.9870   -2.5060 oh        1 MOL     -0.836816
    185 H90        -0.3630   -3.1710   -3.2290 ho        1 MOL      0.387525
    186 H91        -1.3450   -3.8310   -2.2930 ho        1 MOL      0.387525
    187 O26        -0.4680   -0.0860   -3.8260 oh        1 MOL     -0.836816
    188 H92        -0.1080   -0.5440   -4.5800 ho        1 MOL      0.387525
    189 H93        -1.1260    0.5050   -4.1860 ho        1 MOL      0.387525
@<TRIPOS>BOND
     1    1    2 1   
     2    1    4 1   
     3    1    5 1   
     4    1    6 1   
     5    2    3 2   
     6    2    7 1   
     7    7    8 1   
     8    7   15 1   
     9    8    9 1   
    10    8   11 1   
    11    8   16 1   
    12    9   10 2   
    13    9   19 1   
    14   11   12 1   
    15   11   17 1   
    16   11   18 1   
    17   12   13 1   
    18   12   14 1   
    19   19   20 1   
    20   19   28 1   
    21   20   21 1   
    22   20   23 1   
    23   20   29 1   
    24   21   22 2   
    25   21   41 1   
    26   23   24 1   
    27   23   30 1   
    28   23   31 1   
    29   24   25 1   
    30   24   32 1   
    31   24   33 1   
    32   25   26 1   
    33   25   34 1   
    34   25   35 1   
    35   26   27 1   
    36   26   36 1   
    37   26   37 1   
    38   27   38 1   
    39   27   39 1   
    40   27   40 1   
    41   41   42 1   
    42   41   49 1   
    43   42   43 1   
    44   42   45 1   
    45   42   50 1   
    46   43   44 2   
    47   43   53 1   
    48   45   46 1   
    49   45   51 1   
    50   45   52 1   
    51   46   47 1   
    52   46   48 1   
    53   53   54 1   
    54   53   57 1   
    55   54   55 1   
    56   54   58 1   
    57   54   59 1   
    58   55   56 2   
    59   55   60 1   
    60   60   61 1   
    61   60   68 1   
    62   61   62 1   
    63   61   64 1   
    64   61   69 1   
    65   62   63 2   
    66   62   72 1   
    67   64   65 1   
    68   64   70 1   
    69   64   71 1   
    70   65   66 1   
    71   65   67 1   
    72   72   73 1   
    73   72   76 1   
    74   73   74 1   
    75   73   77 1   
    76   73   78 1   
    77   74   75 2   
    78   74   79 1   
    79   79   80 1   
    80   79   86 1   
    81   80   81 1   
    82   80   83 1   
    83   80   87 1   
    84   81   82 2   
    85   81   93 1   
    86   83   84 1   
    87   83   85 1   
    88   83   88 1   
    89   84   90 1   
    90   84   91 1   
    91   84   92 1   
    92   85   89 1   
    93   93   94 1   
    94   93  101 1   
    95   94   95 1   
    96   94   97 1   
    97   94  102 1   
    98   95   96 2   
    99   95  112 1   
   100   97   98 1   
   101   97   99 1   
   102   97  103 1   
   103   98  100 1   
   104   98  104 1   
   105   98  105 1   
   106   99  106 1   
   107   99  107 1   
   108   99  108 1   
   109  100  109 1   
   110  100  110 1   
   111  100  111 1   
   112  112  113 1   
   113  112  119 1   
   114  113  114 1   
   115  113  116 1   
   116  113  120 1   
   117  114  115 2   
   118  114  126 1   
   119  116  117 1   
   120  116  118 1   
   121  116  121 1   
   122  117  123 1   
   123  117  124 1   
   124  117  125 1   
   125  118  122 1   
   126  126  127 1   
   127  126  133 1   
   128  127  128 1   
   129  127  130 1   
   130  127  134 1   
   131  128  129 2   
   132  128  140 1   
   133  130  131 1   
   134  130  132 1   
   135  130  135 1   
   136  131  137 1   
   137  131  138 1   
   138  131  139 1   
   139  132  136 1   
   140  140  141 1   
   141  140  149 1   
   142  141  142 1   
   143  141  144 1   
   144  141  150 1   
   145  142  143 2   
   146  142  162 1   
   147  144  145 1   
   148  144  151 1   
   149  144  152 1   
   150  145  146 1   
   151  145  153 1   
   152  145  154 1   
   153  146  147 1   
   154  146  155 1   
   155  146  156 1   
   156  147  148 1   
   157  147  157 1   
   158  147  158 1   
   159  148  159 1   
   160  148  160 1   
   161  148  161 1   
   162  162  163 1   
   163  162  171 1   
   164  163  164 1   
   165  163  166 1   
   166  163  172 1   
   167  164  165 2   
   168  164  177 1   
   169  166  167 1   
   170  166  173 1   
   171  166  174 1   
   172  167  168 1   
   173  167  175 1   
   174  167  176 1   
   175  168  169 1   
   176  168  170 1   
   177  177  178 1   
   178  177  182 1   
   179  178  179 1   
   180  178  180 1   
   181  178  181 1   
   182  184  185 1   
   183  184  186 1   
   184  187  188 1   
   185  187  189 1   
@<TRIPOS>SUBSTRUCTURE
     1 MOL         1 TEMP              0 ****  ****    0 ROOT
