@<TRIPOS>MOLECULE
MOL
  189   185     1     0     0
SMALL
resp


@<TRIPOS>ATOM
      1 C1          0.4740    1.2620    5.9040 c3        1 MOL     -0.338116
      2 C2         -0.1150    1.4100    4.5780 c         1 MOL      0.764830
      3 O1          0.5250    2.0040    3.6810 o         1 MOL     -0.637258
      4 H1         -0.2770    1.4840    6.6620 hc        1 MOL      0.085118
      5 H2          0.8280    0.2390    6.0330 hc        1 MOL      0.085118
      6 H3          1.3110    1.9530    6.0090 hc        1 MOL      0.085118
      7 N1         -1.3490    0.9930    4.4400 n         1 MOL     -0.566565
      8 C3         -1.9760    1.0050    3.1460 c3        1 MOL      0.217887
      9 C4         -2.4400    2.4480    2.7960 c         1 MOL      0.370508
     10 O2         -3.2890    3.0180    3.4900 o         1 MOL     -0.567615
     11 C5         -3.2130    0.0510    3.1670 c3        1 MOL     -0.133722
     12 C6         -3.8430   -0.3400    1.8410 c         1 MOL      0.723434
     13 O3         -3.3440    0.0460    0.7410 o         1 MOL     -0.682390
     14 O4         -4.8520   -1.0310    1.9130 o         1 MOL     -0.682390
     15 H4         -1.7830    0.4870    5.2020 hn        1 MOL      0.313024
     16 H5         -1.3500    0.6280    2.3360 h1        1 MOL     -0.025446
     17 H6         -3.9990    0.3790    3.8410 hc        1 MOL      0.030659
     18 H7         -2.8210   -0.8890    3.5620 hc        1 MOL      0.030659
     19 N2         -2.0200    3.0960    1.7010 n         1 MOL      0.001140
     20 C7         -2.2840    4.5730    1.4820 c3        1 MOL      0.056165
     21 C8         -3.3510    4.8490    0.4970 c         1 MOL      0.361481
     22 O5         -4.1190    5.8290    0.7100 o         1 MOL     -0.556738
     23 C9         -0.9560    5.3070    1.1460 c3        1 MOL     -0.267712
     24 C10        -1.0210    6.7960    1.0610 c3        1 MOL     -0.017114
     25 C11         0.4030    7.3580    1.2250 c3        1 MOL     -0.014926
     26 C12         0.4760    8.6590    0.4290 c3        1 MOL     -0.197336
     27 N3          0.4330    8.4740   -1.0340 n4        1 MOL     -0.304546
     28 H8         -1.3870    2.5660    1.1110 hn        1 MOL      0.015627
     29 H9         -2.5710    4.9430    2.4690 h1        1 MOL      0.093059
     30 H10        -0.4740    4.8550    0.2890 hc        1 MOL      0.096097
     31 H11        -0.3590    5.0340    2.0240 hc        1 MOL      0.096097
     32 H12        -1.6050    7.2560    1.8540 hc        1 MOL      0.063766
     33 H13        -1.5130    7.0810    0.1340 hc        1 MOL      0.063766
     34 H14         1.2310    6.7690    0.8340 hc        1 MOL      0.075537
     35 H15         0.6260    7.5500    2.2780 hc        1 MOL      0.075537
     36 H16         1.4420    9.0840    0.7140 hx        1 MOL      0.139164
     37 H17        -0.3910    9.2510    0.7180 hx        1 MOL      0.139164
     38 H18         0.7510    9.2830   -1.5590 hn        1 MOL      0.316772
     39 H19         1.0310    7.7180   -1.3200 hn        1 MOL      0.316772
     40 H20        -0.5050    8.4270   -1.4110 hn        1 MOL      0.316772
     41 N4         -3.5420    3.8800   -0.4100 n         1 MOL     -0.273248
     42 C13        -4.6630    3.8770   -1.3980 c3        1 MOL     -0.023366
     43 C14        -5.8930    3.0380   -0.9840 c         1 MOL      0.405675
     44 O6         -6.9730    3.0350   -1.6400 o         1 MOL     -0.524861
     45 C15        -4.1730    3.6060   -2.8760 c3        1 MOL     -0.211295
     46 C16        -2.9670    2.7190   -2.8880 c         1 MOL      0.741581
     47 O7         -3.0860    1.6940   -2.1730 o         1 MOL     -0.708252
     48 O8         -2.0010    3.0300   -3.6700 o         1 MOL     -0.708252
     49 H21        -2.8730    3.1210   -0.4420 hn        1 MOL      0.251127
     50 H22        -5.1720    4.8290   -1.4410 h1        1 MOL      0.102160
     51 H23        -3.7860    4.5490   -3.2640 hc        1 MOL      0.057881
     52 H24        -5.0140    3.4050   -3.5280 hc        1 MOL      0.057881
     53 N5         -5.7020    2.3570    0.1550 n         1 MOL     -0.107892
     54 C17        -6.6990    1.6140    0.9660 c3        1 MOL     -0.176389
     55 C18        -7.3110    0.3930    0.2060 c         1 MOL      0.551885
     56 O9         -8.4950    0.1590    0.2840 o         1 MOL     -0.584046
     57 H25        -4.7980    2.3940    0.6010 hn        1 MOL      0.167029
     58 H26        -7.4560    2.3350    1.2940 h1        1 MOL      0.098274
     59 H27        -6.2890    1.1320    1.8530 h1        1 MOL      0.098274
     60 N6         -6.5290   -0.3020   -0.6280 n         1 MOL     -0.077112
     61 C19        -7.0320   -1.2200   -1.5950 c3        1 MOL     -0.079026
     62 C20        -6.9340   -2.7140   -1.1080 c         1 MOL      0.454883
     63 O10        -7.5630   -3.5500   -1.7510 o         1 MOL     -0.528078
     64 C21        -6.2480   -1.0510   -2.9200 c3        1 MOL     -0.176955
     65 C22        -4.7190   -1.0800   -2.7700 c         1 MOL      0.762381
     66 O11        -4.0370   -0.8240   -3.7710 o         1 MOL     -0.690983
     67 O12        -4.2460   -1.5030   -1.6950 o         1 MOL     -0.690983
     68 H28        -5.5250   -0.2680   -0.5270 hn        1 MOL     -0.007808
     69 H29        -8.0900   -1.0650   -1.7920 h1        1 MOL      0.126463
     70 H30        -6.5770   -0.0890   -3.3030 hc        1 MOL      0.063502
     71 H31        -6.5630   -1.8150   -3.6230 hc        1 MOL      0.063502
     72 N7         -6.4180   -2.9940    0.1060 n         1 MOL     -0.329976
     73 C23        -6.1760   -4.2990    0.6120 c3        1 MOL     -0.024378
     74 C24        -4.8460   -5.0580    0.4040 c         1 MOL      0.534042
     75 O13        -4.7910   -6.2390    0.6410 o         1 MOL     -0.597531
     76 H32        -6.0590   -2.1960    0.6140 hn        1 MOL      0.273326
     77 H33        -6.9060   -4.9280    0.1010 h1        1 MOL      0.063047
     78 H34        -6.3680   -4.3850    1.6780 h1        1 MOL      0.063047
     79 N8         -3.8680   -4.4720   -0.1860 n         1 MOL     -0.304502
     80 C25        -2.4470   -4.8850   -0.1120 c3        1 MOL      0.059726
     81 C26        -1.4920   -3.7580    0.2720 c         1 MOL      0.752713
     82 O14        -1.7780   -2.5500    0.1090 o         1 MOL     -0.657403
     83 C27        -1.8780   -5.7330   -1.2440 c3        1 MOL      0.122733
     84 C28        -2.7990   -6.7850   -1.7750 c3        1 MOL     -0.419184
     85 O15        -1.5730   -4.9010   -2.3440 oh        1 MOL     -0.509448
     86 H35        -4.1070   -3.5160   -0.3990 hn        1 MOL      0.261597
     87 H36        -2.4600   -5.4820    0.8030 h1        1 MOL      0.049094
     88 H37        -0.9910   -6.2640   -0.9020 h1        1 MOL      0.049081
     89 H38        -1.3470   -5.5560   -3.0010 ho        1 MOL      0.374226
     90 H39        -2.3590   -7.3680   -2.5930 hc        1 MOL      0.131276
     91 H40        -3.1090   -7.4450   -0.9680 hc        1 MOL      0.131276
     92 H41        -3.7250   -6.3100   -2.0890 hc        1 MOL      0.131276
     93 N9         -0.4040   -4.2500    0.8860 n         1 MOL     -0.762654
     94 C29         0.7010   -3.3340    1.3340 c3        1 MOL      0.043087
     95 C30         1.8550   -3.6550    0.3980 c         1 MOL      0.494394
     96 O16         2.3570   -4.7930    0.2880 o         1 MOL     -0.557159
     97 C31         1.1280   -3.4010    2.7860 c3        1 MOL      0.520981
     98 C32        -0.0990   -3.4670    3.7020 c3        1 MOL     -0.007334
     99 C33         2.0030   -2.2200    3.1590 c3        1 MOL     -0.841028
    100 C34         0.2360   -3.8260    5.1920 c3        1 MOL     -0.144903
    101 H42        -0.3840   -5.2090    1.1900 hn        1 MOL      0.354833
    102 H43         0.3820   -2.2940    1.2330 h1        1 MOL      0.100583
    103 H44         1.7040   -4.3220    2.9250 hc        1 MOL     -0.086497
    104 H45        -0.7730   -4.2320    3.3190 hc        1 MOL      0.000559
    105 H46        -0.5790   -2.4850    3.6860 hc        1 MOL      0.000559
    106 H47         2.2880   -2.3360    4.1990 hc        1 MOL      0.172074
    107 H48         2.8470   -2.1290    2.4690 hc        1 MOL      0.172074
    108 H49         1.3880   -1.3380    2.9920 hc        1 MOL      0.172074
    109 H50         0.5220   -4.8650    5.3420 hc        1 MOL      0.037148
    110 H51         1.0530   -3.2500    5.6310 hc        1 MOL      0.037148
    111 H52        -0.6230   -3.7180    5.8510 hc        1 MOL      0.037148
    112 N10         2.3640   -2.6280   -0.2690 n         1 MOL     -0.133614
    113 C35         3.6120   -2.7120   -0.9700 c3        1 MOL     -0.005703
    114 C36         4.9640   -2.5550   -0.1780 c         1 MOL      0.336203
    115 O17         4.9430   -2.1650    1.0410 o         1 MOL     -0.386505
    116 C37         3.6040   -1.7840   -2.1350 c3        1 MOL      0.160675
    117 C38         2.3910   -1.6820   -3.0660 c3        1 MOL     -0.435580
    118 O18         3.9010   -0.4280   -1.7600 oh        1 MOL     -0.628001
    119 H53         1.9750   -1.6970   -0.2390 hn        1 MOL      0.107845
    120 H54         3.5770   -3.6810   -1.4630 h1        1 MOL      0.078410
    121 H55         4.3590   -2.0780   -2.8730 h1        1 MOL      0.061943
    122 H56         3.2010    0.2100   -1.9050 ho        1 MOL      0.457331
    123 H57         1.5260   -1.3600   -2.4710 hc        1 MOL      0.118057
    124 H58         2.5790   -1.0350   -3.9220 hc        1 MOL      0.118057
    125 H59         2.2340   -2.6820   -3.4640 hc        1 MOL      0.118057
    126 N11         6.0980   -2.7420   -0.8980 n         1 MOL     -0.176638
    127 C39         7.5210   -2.5790   -0.5350 c3        1 MOL     -0.056578
    128 C40         7.7600   -1.1240   -0.1190 c         1 MOL      0.258302
    129 O19         8.3810   -0.8210    0.9060 o         1 MOL     -0.451458
    130 C41         8.4160   -2.8590   -1.7170 c3        1 MOL      0.554075
    131 C42         9.7690   -3.4390   -1.2920 c3        1 MOL     -0.369019
    132 O20         7.8240   -3.7360   -2.5910 oh        1 MOL     -0.631153
    133 H60         5.9350   -3.0280   -1.8520 hn        1 MOL      0.145963
    134 H61         7.7610   -3.2290    0.3130 h1        1 MOL      0.109544
    135 H62         8.6020   -1.9420   -2.2880 h1        1 MOL     -0.094272
    136 H63         8.1880   -3.5460   -3.4540 ho        1 MOL      0.392906
    137 H64         9.5450   -4.2760   -0.6360 hc        1 MOL      0.093282
    138 H65        10.4010   -3.8020   -2.0950 hc        1 MOL      0.093282
    139 H66        10.2690   -2.6780   -0.6850 hc        1 MOL      0.093282
    140 N12         7.0790   -0.2230   -0.8360 n         1 MOL     -0.058847
    141 C43         7.0190    1.2340   -0.6920 c3        1 MOL     -0.278550
    142 C44         6.2600    1.5450    0.5350 c         1 MOL      0.418534
    143 O21         6.8240    2.2740    1.3560 o         1 MOL     -0.519428
    144 C45         6.5530    1.8540   -2.0100 c3        1 MOL     -0.071275
    145 C46         6.3270    3.3590   -1.8050 c3        1 MOL     -0.065067
    146 C47         5.5670    3.9380   -3.0580 c3        1 MOL     -0.124329
    147 C48         6.4110    3.7520   -4.3330 c3        1 MOL      0.147050
    148 N13         5.5640    4.0310   -5.5380 n4        1 MOL     -0.315535
    149 H67         6.5760   -0.7000   -1.5720 hn        1 MOL      0.125189
    150 H68         8.0280    1.5930   -0.4850 h1        1 MOL      0.155955
    151 H69         5.6100    1.3520   -2.2510 hc        1 MOL      0.038602
    152 H70         7.2570    1.6040   -2.8030 hc        1 MOL      0.038602
    153 H71         7.2760    3.8470   -1.6080 hc        1 MOL      0.080760
    154 H72         5.6400    3.5180   -0.9750 hc        1 MOL      0.080760
    155 H73         5.4120    5.0150   -2.9560 hc        1 MOL      0.045253
    156 H74         4.6850    3.3290   -3.2890 hc        1 MOL      0.045253
    157 H75         6.8460    2.7740   -4.5540 hx        1 MOL      0.058423
    158 H76         7.2500    4.4430   -4.3670 hx        1 MOL      0.058423
    159 H77         6.0990    4.1460   -6.3800 hn        1 MOL      0.270939
    160 H78         4.9110    3.2970   -5.7410 hn        1 MOL      0.270939
    161 H79         5.0660    4.8880   -5.3570 hn        1 MOL      0.270939
    162 N14         5.0820    1.0220    0.6470 n         1 MOL      0.054913
    163 C49         4.1200    1.2970    1.7130 c3        1 MOL     -0.441222
    164 C50         4.6490    0.8390    3.0840 c         1 MOL      0.589887
    165 O22         4.5110    1.5570    4.0170 o         1 MOL     -0.544631
    166 C51         2.7420    0.6930    1.4100 c3        1 MOL      0.412314
    167 C52         1.9630    1.4680    0.3130 c3        1 MOL     -0.234687
    168 C53         0.5690    0.7860   -0.0130 c         1 MOL      0.502398
    169 O23         0.4730   -0.3510   -0.5240 o         1 MOL     -0.566595
    170 O24        -0.4770    1.4920   -0.0960 o         1 MOL     -0.566595
    171 H80         4.8150    0.4060   -0.1050 hn        1 MOL      0.162912
    172 H81         3.9270    2.3560    1.8730 h1        1 MOL      0.129050
    173 H82         2.2470    0.7830    2.3730 hc        1 MOL     -0.005328
    174 H83         2.8000   -0.3380    1.0740 hc        1 MOL     -0.005328
    175 H84         2.6290    1.4050   -0.5460 hc        1 MOL      0.010148
    176 H85         1.9050    2.5020    0.6330 hc        1 MOL      0.010148
    177 N15         5.2320   -0.3570    3.2180 n         1 MOL     -0.201317
    178 C54         6.0970   -0.6980    4.3830 c3        1 MOL     -0.374693
    179 H86         5.6090   -0.3810    5.3040 h1        1 MOL      0.137675
    180 H87         6.2600   -1.7760    4.4120 h1        1 MOL      0.137675
    181 H88         7.0550   -0.1880    4.2860 h1        1 MOL      0.137675
    182 H89         5.3360   -0.8990    2.3740 hn        1 MOL      0.223694
    183 Ca1        -1.9700   -0.4250   -1.4240 Ca        1 MOL      1.705415
    184 O25        -0.5920    0.9010   -3.4100 oh        1 MOL     -0.840359
    185 H90        -1.0920    1.6580   -3.7020 ho        1 MOL      0.383363
    186 H91        -0.3520    0.4330   -4.2120 ho        1 MOL      0.383363
    187 O26        -0.9970   -2.3210   -3.1210 oh        1 MOL     -0.840359
    188 H92        -0.4750   -2.0770   -3.8830 ho        1 MOL      0.383363
    189 H93        -0.9350   -3.2760   -3.0940 ho        1 MOL      0.383363
@<TRIPOS>BOND
     1    1    2 1   
     2    1    4 1   
     3    1    5 1   
     4    1    6 1   
     5    2    3 2   
     6    2    7 1   
     7    7    8 1   
     8    7   15 1   
     9    8    9 1   
    10    8   11 1   
    11    8   16 1   
    12    9   10 2   
    13    9   19 1   
    14   11   12 1   
    15   11   17 1   
    16   11   18 1   
    17   12   13 1   
    18   12   14 1   
    19   19   20 1   
    20   19   28 1   
    21   20   21 1   
    22   20   23 1   
    23   20   29 1   
    24   21   22 2   
    25   21   41 1   
    26   23   24 1   
    27   23   30 1   
    28   23   31 1   
    29   24   25 1   
    30   24   32 1   
    31   24   33 1   
    32   25   26 1   
    33   25   34 1   
    34   25   35 1   
    35   26   27 1   
    36   26   36 1   
    37   26   37 1   
    38   27   38 1   
    39   27   39 1   
    40   27   40 1   
    41   41   42 1   
    42   41   49 1   
    43   42   43 1   
    44   42   45 1   
    45   42   50 1   
    46   43   44 2   
    47   43   53 1   
    48   45   46 1   
    49   45   51 1   
    50   45   52 1   
    51   46   47 1   
    52   46   48 1   
    53   53   54 1   
    54   53   57 1   
    55   54   55 1   
    56   54   58 1   
    57   54   59 1   
    58   55   56 2   
    59   55   60 1   
    60   60   61 1   
    61   60   68 1   
    62   61   62 1   
    63   61   64 1   
    64   61   69 1   
    65   62   63 2   
    66   62   72 1   
    67   64   65 1   
    68   64   70 1   
    69   64   71 1   
    70   65   66 1   
    71   65   67 1   
    72   72   73 1   
    73   72   76 1   
    74   73   74 1   
    75   73   77 1   
    76   73   78 1   
    77   74   75 2   
    78   74   79 1   
    79   79   80 1   
    80   79   86 1   
    81   80   81 1   
    82   80   83 1   
    83   80   87 1   
    84   81   82 2   
    85   81   93 1   
    86   83   84 1   
    87   83   85 1   
    88   83   88 1   
    89   84   90 1   
    90   84   91 1   
    91   84   92 1   
    92   85   89 1   
    93   93   94 1   
    94   93  101 1   
    95   94   95 1   
    96   94   97 1   
    97   94  102 1   
    98   95   96 2   
    99   95  112 1   
   100   97   98 1   
   101   97   99 1   
   102   97  103 1   
   103   98  100 1   
   104   98  104 1   
   105   98  105 1   
   106   99  106 1   
   107   99  107 1   
   108   99  108 1   
   109  100  109 1   
   110  100  110 1   
   111  100  111 1   
   112  112  113 1   
   113  112  119 1   
   114  113  114 1   
   115  113  116 1   
   116  113  120 1   
   117  114  115 2   
   118  114  126 1   
   119  116  117 1   
   120  116  118 1   
   121  116  121 1   
   122  117  123 1   
   123  117  124 1   
   124  117  125 1   
   125  118  122 1   
   126  126  127 1   
   127  126  133 1   
   128  127  128 1   
   129  127  130 1   
   130  127  134 1   
   131  128  129 2   
   132  128  140 1   
   133  130  131 1   
   134  130  132 1   
   135  130  135 1   
   136  131  137 1   
   137  131  138 1   
   138  131  139 1   
   139  132  136 1   
   140  140  141 1   
   141  140  149 1   
   142  141  142 1   
   143  141  144 1   
   144  141  150 1   
   145  142  143 2   
   146  142  162 1   
   147  144  145 1   
   148  144  151 1   
   149  144  152 1   
   150  145  146 1   
   151  145  153 1   
   152  145  154 1   
   153  146  147 1   
   154  146  155 1   
   155  146  156 1   
   156  147  148 1   
   157  147  157 1   
   158  147  158 1   
   159  148  159 1   
   160  148  160 1   
   161  148  161 1   
   162  162  163 1   
   163  162  171 1   
   164  163  164 1   
   165  163  166 1   
   166  163  172 1   
   167  164  165 2   
   168  164  177 1   
   169  166  167 1   
   170  166  173 1   
   171  166  174 1   
   172  167  168 1   
   173  167  175 1   
   174  167  176 1   
   175  168  169 1   
   176  168  170 1   
   177  177  178 1   
   178  177  182 1   
   179  178  179 1   
   180  178  180 1   
   181  178  181 1   
   182  184  185 1   
   183  184  186 1   
   184  187  188 1   
   185  187  189 1   
@<TRIPOS>SUBSTRUCTURE
     1 MOL         1 TEMP              0 ****  ****    0 ROOT
