@<TRIPOS>MOLECULE
MOL
  186   183     1     0     0
SMALL
resp


@<TRIPOS>ATOM
      1 C1          0.5890   -4.1100    6.1170 c3        1 MOL     -0.321935
      2 C2          0.8760   -3.5490    4.7280 c         1 MOL      0.742138
      3 O1          0.9590   -2.3390    4.5950 o         1 MOL     -0.593431
      4 H1          1.3600   -4.8320    6.3840 hc        1 MOL      0.071981
      5 H2          0.5860   -3.2980    6.8440 hc        1 MOL      0.071981
      6 H3         -0.3840   -4.6020    6.1180 hc        1 MOL      0.071981
      7 N1          1.0270   -4.3890    3.7050 n         1 MOL     -0.599936
      8 C3          1.5590   -3.9830    2.3790 c3        1 MOL      0.206684
      9 C4          1.4190   -5.0620    1.3510 c         1 MOL      0.446884
     10 O2          1.6750   -6.2230    1.5310 o         1 MOL     -0.543043
     11 C5          3.1190   -3.7150    2.5730 c3        1 MOL     -0.172759
     12 C6          3.7210   -3.6180    1.2030 c         1 MOL      0.591269
     13 O3          4.5730   -4.5290    0.9130 o         1 MOL     -0.620629
     14 O4          3.2590   -2.7510    0.4060 o         1 MOL     -0.620629
     15 H4          0.8070   -5.3670    3.8140 hn        1 MOL      0.298154
     16 H5          1.0080   -3.0810    2.0850 h1        1 MOL     -0.083197
     17 H6          3.6060   -4.5490    3.0830 hc        1 MOL      0.030335
     18 H7          3.3040   -2.7780    3.1030 hc        1 MOL      0.030335
     19 N2          1.0410   -4.6360    0.0970 n         1 MOL     -0.045665
     20 C7          0.9360   -5.5390   -1.0470 c3        1 MOL     -0.243101
     21 C8          1.7410   -5.0270   -2.2720 c         1 MOL      0.612754
     22 O5          1.6320   -5.5690   -3.3280 o         1 MOL     -0.586054
     23 C9         -0.5890   -5.8310   -1.3870 c3        1 MOL      0.168614
     24 C10        -1.2480   -4.7870   -2.1470 c3        1 MOL      0.079881
     25 C11        -1.2940   -6.5190   -0.2040 c3        1 MOL     -0.108082
     26 C12        -2.6820   -5.1280   -2.6490 c3        1 MOL     -0.203602
     27 H8          0.9290   -3.6590   -0.1100 hn        1 MOL      0.213301
     28 H9          1.4080   -6.4900   -0.8040 h1        1 MOL      0.115653
     29 H10        -0.4770   -6.6090   -2.1470 hc        1 MOL     -0.047625
     30 H11        -0.6620   -4.5680   -3.0420 hc        1 MOL      0.007356
     31 H12        -1.2710   -3.8860   -1.5460 hc        1 MOL      0.007356
     32 H13        -2.1570   -7.0860   -0.5420 hc        1 MOL      0.013110
     33 H14        -0.6870   -7.2340    0.3490 hc        1 MOL      0.013110
     34 H15        -1.5770   -5.7500    0.5140 hc        1 MOL      0.013110
     35 H16        -2.6990   -6.0620   -3.2080 hc        1 MOL      0.042802
     36 H17        -3.2890   -5.2900   -1.7600 hc        1 MOL      0.042802
     37 H18        -3.0630   -4.2700   -3.2010 hc        1 MOL      0.042802
     38 N3          2.6990   -4.0610   -2.1970 n         1 MOL     -0.378636
     39 C13         3.4850   -3.6490   -3.3510 c3        1 MOL     -0.072202
     40 C14         4.8560   -3.0540   -3.0330 c         1 MOL      0.565663
     41 O6          5.4960   -2.6080   -3.9520 o         1 MOL     -0.578924
     42 C15         2.5700   -2.6990   -4.1660 c3        1 MOL     -0.132765
     43 C16         2.1750   -1.4910   -3.3330 c         1 MOL      0.721812
     44 O7          2.7440   -1.1430   -2.2430 o         1 MOL     -0.702661
     45 O8          1.2820   -0.7440   -3.8730 o         1 MOL     -0.702661
     46 H19         2.7890   -3.5540   -1.3380 hn        1 MOL      0.154983
     47 H20         3.6650   -4.5400   -3.9610 h1        1 MOL      0.103516
     48 H21         1.6050   -3.1670   -4.3680 hc        1 MOL      0.054336
     49 H22         2.9760   -2.4500   -5.1470 hc        1 MOL      0.054336
     50 N4          5.2520   -2.9460   -1.7320 n         1 MOL     -0.367122
     51 C17         6.5610   -2.5630   -1.2560 c3        1 MOL     -0.043174
     52 C18         6.9630   -1.0860   -1.5680 c         1 MOL      0.516929
     53 O9          8.1240   -0.7490   -1.3980 o         1 MOL     -0.640429
     54 H23         4.5110   -2.8850   -1.0500 hn        1 MOL      0.186233
     55 H24         7.3800   -3.1420   -1.6750 h1        1 MOL      0.062542
     56 H25         6.7140   -2.5850   -0.1700 h1        1 MOL      0.062542
     57 N5          6.0680   -0.2210   -2.0430 n         1 MOL     -0.197404
     58 C19         6.4540    1.1520   -2.4180 c3        1 MOL     -0.050508
     59 C20         6.9420    1.9710   -1.1620 c         1 MOL      0.489775
     60 O10         7.3120    3.1440   -1.3990 o         1 MOL     -0.589823
     61 C21         5.2360    1.9260   -3.0190 c3        1 MOL     -0.226770
     62 C22         4.0120    1.9390   -2.1240 c         1 MOL      0.844149
     63 O11         4.0130    1.2860   -1.0050 o         1 MOL     -0.732155
     64 O12         2.9520    2.4570   -2.5370 o         1 MOL     -0.732155
     65 H26         5.0680   -0.3560   -2.1490 hn        1 MOL      0.214512
     66 H27         7.2980    1.0350   -3.0980 h1        1 MOL      0.087977
     67 H28         4.9120    1.4630   -3.9580 hc        1 MOL      0.066008
     68 H29         5.5680    2.9380   -3.2550 hc        1 MOL      0.066008
     69 N6          6.8200    1.3980   -0.0240 n         1 MOL     -0.206461
     70 C23         7.2520    2.0020    1.2750 c3        1 MOL     -0.164288
     71 C24         6.3100    3.1290    1.7820 c         1 MOL      0.463473
     72 O13         6.6840    3.9290    2.6500 o         1 MOL     -0.574925
     73 H30         6.4540    0.4690   -0.0100 hn        1 MOL      0.270983
     74 H31         8.2980    2.2650    1.1160 h1        1 MOL      0.091588
     75 H32         7.2860    1.2340    2.0470 h1        1 MOL      0.091588
     76 N7          5.0820    3.1710    1.2260 n         1 MOL     -0.063439
     77 C25         3.9030    4.0130    1.6030 c3        1 MOL     -0.046999
     78 C26         2.6550    3.1070    1.8570 c         1 MOL      0.474215
     79 O14         2.7690    1.9040    1.5340 o         1 MOL     -0.633625
     80 C27         3.5710    4.9200    0.3980 c3        1 MOL     -0.028331
     81 C28         4.6350    6.0290    0.2880 c3        1 MOL     -0.264689
     82 C29         4.1660    7.0530   -0.7370 c         1 MOL      0.611026
     83 N8          4.6620    7.0530   -1.9100 n         1 MOL     -0.696016
     84 O15         3.3050    7.8990   -0.4870 o         1 MOL     -0.594543
     85 H33         4.9460    2.4610    0.5190 hn        1 MOL      0.027232
     86 H34         4.0900    4.4790    2.5660 h1        1 MOL      0.060335
     87 H35         2.6020    5.3970    0.5610 hc        1 MOL      0.083106
     88 H36         3.5330    4.3020   -0.5040 hc        1 MOL      0.083106
     89 H37         5.6240    5.6290    0.0490 hc        1 MOL      0.084039
     90 H38         4.7550    6.5480    1.2440 hc        1 MOL      0.084039
     91 H39         5.5070    6.5260   -2.0740 hn        1 MOL      0.338599
     92 H40         4.3120    7.7130   -2.5910 hn        1 MOL      0.338599
     93 N9          1.5550    3.6410    2.3200 n         1 MOL     -0.243212
     94 C30         0.2380    2.9970    2.6060 c3        1 MOL     -0.094347
     95 C31        -0.8260    3.4980    1.7340 c         1 MOL      0.394301
     96 O16        -1.1360    4.6680    1.8590 o         1 MOL     -0.556804
     97 C32        -0.0930    3.2980    4.1140 c3        1 MOL      0.420046
     98 C33        -1.2780    2.3970    4.4380 c3        1 MOL     -0.382122
     99 C34         0.9550    2.9650    5.0650 c3        1 MOL     -0.382122
    100 H41         1.5580    4.6000    2.6510 hn        1 MOL      0.210713
    101 H42         0.4150    1.9230    2.4880 h1        1 MOL      0.103903
    102 H43        -0.4830    4.2790    4.3860 hc        1 MOL     -0.042759
    103 H44        -0.9280    1.3700    4.5910 hc        1 MOL      0.078633
    104 H45        -1.7410    2.7260    5.3690 hc        1 MOL      0.078633
    105 H46        -2.0810    2.4310    3.6870 hc        1 MOL      0.078633
    106 H47         0.5970    3.1300    6.0860 hc        1 MOL      0.078633
    107 H48         1.3710    1.9980    4.7870 hc        1 MOL      0.078633
    108 H49         1.8210    3.6100    4.9080 hc        1 MOL      0.078633
    109 N10        -1.2980    2.6510    0.8390 n         1 MOL     -0.150141
    110 C35        -2.4860    2.8050    0.0020 c3        1 MOL      0.099041
    111 C36        -3.7460    2.4270    0.7180 c         1 MOL      0.166131
    112 O17        -3.7130    1.7750    1.7390 o         1 MOL     -0.184865
    113 C37        -2.3120    1.8270   -1.2300 c3        1 MOL     -0.273180
    114 C38        -3.4290    2.0790   -2.2590 c         1 MOL      0.590681
    115 N11        -3.4360    3.2900   -2.8690 n         1 MOL     -0.674968
    116 O18        -4.2050    1.2600   -2.6340 o         1 MOL     -0.434236
    117 H50        -0.8200    1.7610    0.8770 hn        1 MOL      0.141175
    118 H51        -2.5860    3.8400   -0.3080 h1        1 MOL      0.043040
    119 H52        -2.4290    0.7810   -0.9220 hc        1 MOL      0.119740
    120 H53        -1.3690    1.9850   -1.7440 hc        1 MOL      0.119740
    121 H54        -2.7130    3.9150   -2.5360 hn        1 MOL      0.308991
    122 H55        -4.0960    3.6800   -3.5160 hn        1 MOL      0.308991
    123 N12        -4.9360    2.7950    0.2070 n         1 MOL     -0.134700
    124 C39        -6.3300    2.5120    0.7050 c3        1 MOL     -0.010346
    125 C40        -6.5650    0.9910    0.8000 c         1 MOL      0.358574
    126 O19        -7.1830    0.5630    1.7940 o         1 MOL     -0.565090
    127 C41        -7.4430    3.2510   -0.1550 c3        1 MOL     -0.104548
    128 C42        -7.1830    3.2120   -1.6410 ca        1 MOL      0.013917
    129 C43        -6.6050    4.2990   -2.2600 ca        1 MOL     -0.114295
    130 C44        -7.4570    2.0500   -2.3660 ca        1 MOL     -0.114295
    131 C45        -6.3370    4.2230   -3.6590 ca        1 MOL     -0.366459
    132 C46        -7.2060    1.9410   -3.7670 ca        1 MOL     -0.366459
    133 C47        -6.6120    3.0360   -4.4010 ca        1 MOL      0.542346
    134 O20        -6.3850    2.9070   -5.7130 oh        1 MOL     -0.639382
    135 H56        -4.9880    3.1380   -0.7420 hn        1 MOL      0.052440
    136 H57        -6.2380    2.9360    1.7110 h1        1 MOL      0.078243
    137 H58        -7.4630    4.2990    0.1460 hc        1 MOL      0.066074
    138 H59        -8.4420    2.8930    0.0720 hc        1 MOL      0.066074
    139 H60        -6.3890    5.2180   -1.7430 ha        1 MOL      0.134437
    140 H61        -7.9790    1.2430   -1.8720 ha        1 MOL      0.134437
    141 H62        -5.9020    5.0210   -4.2390 ha        1 MOL      0.147178
    142 H63        -7.5240    1.1830   -4.4660 ha        1 MOL      0.147178
    143 H64        -6.6410    2.0650   -6.0810 ho        1 MOL      0.459400
    144 N13        -5.9970    0.0700   -0.0150 n         1 MOL      0.367766
    145 C48        -6.1060   -1.3400    0.1230 c3        1 MOL     -0.472431
    146 C49        -5.2480   -1.9230    1.2490 c         1 MOL      0.465669
    147 O21        -5.4050   -3.1390    1.6210 o         1 MOL     -0.565864
    148 C50        -5.7090   -2.0730   -1.1230 c3        1 MOL      0.114907
    149 C51        -6.6420   -1.9550   -2.3270 c3        1 MOL     -0.126238
    150 C52        -8.1730   -2.0550   -2.0900 c         1 MOL      0.579422
    151 O22        -9.0170   -1.2650   -2.5730 o         1 MOL     -0.678484
    152 O23        -8.4960   -2.8720   -1.1670 o         1 MOL     -0.678484
    153 H65        -5.6600    0.4460   -0.8910 hn        1 MOL      0.000236
    154 H66        -7.1060   -1.6500    0.4040 h1        1 MOL      0.226279
    155 H67        -5.5840   -3.1480   -0.9450 hc        1 MOL      0.010943
    156 H68        -4.7230   -1.7640   -1.4640 hc        1 MOL      0.010943
    157 H69        -6.3030   -2.5930   -3.1370 hc        1 MOL      0.005970
    158 H70        -6.5240   -0.9220   -2.6640 hc        1 MOL      0.005970
    159 N14        -4.4420   -1.1710    1.9470 n         1 MOL      0.013156
    160 C53        -3.4970   -1.6290    2.9560 c3        1 MOL     -0.014666
    161 C54        -3.8230   -0.8960    4.2930 c         1 MOL      0.343201
    162 O24        -3.8990   -1.5240    5.4000 o         1 MOL     -0.567422
    163 C55        -2.0340   -1.4160    2.5700 c3        1 MOL     -0.030160
    164 C56        -1.6780   -2.0640    1.2140 c3        1 MOL     -0.119404
    165 C57        -0.4690   -1.3590    0.6500 c         1 MOL      0.941890
    166 O25         0.3210   -1.9820   -0.0230 o         1 MOL     -0.827716
    167 O26        -0.1510   -0.1620    0.9420 o         1 MOL     -0.827716
    168 H71        -4.4780   -0.1720    1.7650 hn        1 MOL     -0.146689
    169 H72        -3.6990   -2.6850    3.1460 h1        1 MOL      0.076863
    170 H73        -1.3640   -1.6150    3.4000 hc        1 MOL      0.051596
    171 H74        -1.9040   -0.3380    2.4700 hc        1 MOL      0.051596
    172 H75        -2.5110   -1.9730    0.5210 hc        1 MOL      0.013980
    173 H76        -1.5770   -3.1440    1.3360 hc        1 MOL      0.013980
    174 N15        -4.1210    0.3880    4.2650 n         1 MOL      0.020892
    175 C58        -4.6160    1.2500    5.3230 c3        1 MOL     -0.198977
    176 H77        -5.5660    1.6900    5.0180 h1        1 MOL      0.069380
    177 H78        -4.7620    0.6650    6.2300 h1        1 MOL      0.069380
    178 H79        -3.8940    2.0440    5.5140 h1        1 MOL      0.069380
    179 H80        -4.1510    0.8640    3.3740 hn        1 MOL      0.092281
    180 Ca1         2.3710   -0.2730    0.1170 Ca        1 MOL      1.759064
    181 O27         4.6630   -0.3970    1.5920 oh        1 MOL     -0.919569
    182 H81         5.4590   -0.8720    1.8080 ho        1 MOL      0.444285
    183 H82         4.3560   -0.0520    2.4320 ho        1 MOL      0.444285
    184 O28         0.9950    0.9670   -1.8450 oh        1 MOL     -0.919569
    185 H83         1.0950    0.2380   -2.4560 ho        1 MOL      0.444285
    186 H84         1.6020    1.6360   -2.1770 ho        1 MOL      0.444285
@<TRIPOS>BOND
     1    1    2 1   
     2    1    4 1   
     3    1    5 1   
     4    1    6 1   
     5    2    3 2   
     6    2    7 1   
     7    7    8 1   
     8    7   15 1   
     9    8    9 1   
    10    8   11 1   
    11    8   16 1   
    12    9   10 2   
    13    9   19 1   
    14   11   12 1   
    15   11   17 1   
    16   11   18 1   
    17   12   13 1   
    18   12   14 1   
    19   19   20 1   
    20   19   27 1   
    21   20   21 1   
    22   20   23 1   
    23   20   28 1   
    24   21   22 2   
    25   21   38 1   
    26   23   24 1   
    27   23   25 1   
    28   23   29 1   
    29   24   26 1   
    30   24   30 1   
    31   24   31 1   
    32   25   32 1   
    33   25   33 1   
    34   25   34 1   
    35   26   35 1   
    36   26   36 1   
    37   26   37 1   
    38   38   39 1   
    39   38   46 1   
    40   39   40 1   
    41   39   42 1   
    42   39   47 1   
    43   40   41 2   
    44   40   50 1   
    45   42   43 1   
    46   42   48 1   
    47   42   49 1   
    48   43   44 1   
    49   43   45 1   
    50   50   51 1   
    51   50   54 1   
    52   51   52 1   
    53   51   55 1   
    54   51   56 1   
    55   52   53 2   
    56   52   57 1   
    57   57   58 1   
    58   57   65 1   
    59   58   59 1   
    60   58   61 1   
    61   58   66 1   
    62   59   60 2   
    63   59   69 1   
    64   61   62 1   
    65   61   67 1   
    66   61   68 1   
    67   62   63 1   
    68   62   64 1   
    69   69   70 1   
    70   69   73 1   
    71   70   71 1   
    72   70   74 1   
    73   70   75 1   
    74   71   72 2   
    75   71   76 1   
    76   76   77 1   
    77   76   85 1   
    78   77   78 1   
    79   77   80 1   
    80   77   86 1   
    81   78   79 2   
    82   78   93 1   
    83   80   81 1   
    84   80   87 1   
    85   80   88 1   
    86   81   82 1   
    87   81   89 1   
    88   81   90 1   
    89   82   83 1   
    90   82   84 2   
    91   83   91 1   
    92   83   92 1   
    93   93   94 1   
    94   93  100 1   
    95   94   95 1   
    96   94   97 1   
    97   94  101 1   
    98   95   96 2   
    99   95  109 1   
   100   97   98 1   
   101   97   99 1   
   102   97  102 1   
   103   98  103 1   
   104   98  104 1   
   105   98  105 1   
   106   99  106 1   
   107   99  107 1   
   108   99  108 1   
   109  109  110 1   
   110  109  117 1   
   111  110  111 1   
   112  110  113 1   
   113  110  118 1   
   114  111  112 2   
   115  111  123 1   
   116  113  114 1   
   117  113  119 1   
   118  113  120 1   
   119  114  115 1   
   120  114  116 2   
   121  115  121 1   
   122  115  122 1   
   123  123  124 1   
   124  123  135 1   
   125  124  125 1   
   126  124  127 1   
   127  124  136 1   
   128  125  126 2   
   129  125  144 1   
   130  127  128 1   
   131  127  137 1   
   132  127  138 1   
   133  128  129 ar  
   134  128  130 ar  
   135  129  131 ar  
   136  129  139 1   
   137  130  132 ar  
   138  130  140 1   
   139  131  133 ar  
   140  131  141 1   
   141  132  133 ar  
   142  132  142 1   
   143  133  134 1   
   144  134  143 1   
   145  144  145 1   
   146  144  153 1   
   147  145  146 1   
   148  145  148 1   
   149  145  154 1   
   150  146  147 2   
   151  146  159 1   
   152  148  149 1   
   153  148  155 1   
   154  148  156 1   
   155  149  150 1   
   156  149  157 1   
   157  149  158 1   
   158  150  151 1   
   159  150  152 1   
   160  159  160 1   
   161  159  168 1   
   162  160  161 1   
   163  160  163 1   
   164  160  169 1   
   165  161  162 2   
   166  161  174 1   
   167  163  164 1   
   168  163  170 1   
   169  163  171 1   
   170  164  165 1   
   171  164  172 1   
   172  164  173 1   
   173  165  166 1   
   174  165  167 1   
   175  174  175 1   
   176  174  179 1   
   177  175  176 1   
   178  175  177 1   
   179  175  178 1   
   180  181  182 1   
   181  181  183 1   
   182  184  185 1   
   183  184  186 1   
@<TRIPOS>SUBSTRUCTURE
     1 MOL         1 TEMP              0 ****  ****    0 ROOT
