@<TRIPOS>MOLECULE
MOL
  189   185     1     0     0
SMALL
resp


@<TRIPOS>ATOM
      1 C1         -0.6180    3.8100    5.8560 c3        1 MOL     -0.281690
      2 C2         -1.1030    3.2970    4.4720 c         1 MOL      0.690033
      3 O1         -1.2630    2.1090    4.2580 o         1 MOL     -0.595566
      4 H1         -1.1090    3.2420    6.6460 hc        1 MOL      0.068767
      5 H2          0.4620    3.6800    5.9340 hc        1 MOL      0.068767
      6 H3         -0.8660    4.8660    5.9610 hc        1 MOL      0.068767
      7 N1         -1.2840    4.2020    3.5050 n         1 MOL     -0.550406
      8 C3         -1.9730    3.9780    2.2680 c3        1 MOL      0.243527
      9 C4         -1.6460    4.9960    1.1890 c         1 MOL      0.558757
     10 O2         -1.5440    6.1720    1.5080 o         1 MOL     -0.618616
     11 C5         -3.4840    3.8930    2.5860 c3        1 MOL     -0.404266
     12 C6         -4.1940    2.9590    1.6010 c         1 MOL      0.858114
     13 O3         -5.4140    2.8450    1.7530 o         1 MOL     -0.713666
     14 O4         -3.6000    2.2830    0.7290 o         1 MOL     -0.713666
     15 H4         -0.8450    5.1040    3.6320 hn        1 MOL      0.296923
     16 H5         -1.7010    2.9950    1.8780 h1        1 MOL      0.021850
     17 H6         -4.0300    4.8320    2.4650 hc        1 MOL      0.092553
     18 H7         -3.6570    3.4880    3.5840 hc        1 MOL      0.092553
     19 N2         -1.4090    4.5320   -0.0290 n         1 MOL     -0.143715
     20 C7         -1.0860    5.2700   -1.3070 c3        1 MOL     -0.008961
     21 C8         -2.2330    5.1010   -2.2960 c         1 MOL      0.463468
     22 O5         -2.6550    6.0780   -2.9380 o         1 MOL     -0.576221
     23 C9          0.3640    4.7320   -1.8210 c3        1 MOL      0.146178
     24 C10         1.4920    4.7270   -0.7820 c3        1 MOL      0.045535
     25 C11         0.7270    5.5110   -3.0800 c3        1 MOL     -0.209644
     26 C12         1.7900    6.0770   -0.1180 c3        1 MOL     -0.095883
     27 H8         -1.5420    3.5300   -0.0080 hn        1 MOL     -0.094731
     28 H9         -0.9920    6.3340   -1.1010 h1        1 MOL      0.064612
     29 H10         0.2340    3.7060   -2.1470 hc        1 MOL      0.001602
     30 H11         2.4410    4.3790   -1.1860 hc        1 MOL     -0.007784
     31 H12         1.2710    3.9870   -0.0020 hc        1 MOL     -0.007784
     32 H13         0.8720    6.5730   -2.8930 hc        1 MOL      0.042010
     33 H14         1.5710    5.1010   -3.6380 hc        1 MOL      0.042010
     34 H15        -0.1020    5.4820   -3.7850 hc        1 MOL      0.042010
     35 H16         2.3360    6.0690    0.8360 hc        1 MOL      0.015051
     36 H17         2.2410    6.7390   -0.8450 hc        1 MOL      0.015051
     37 H18         0.9010    6.5730    0.2690 hc        1 MOL      0.015051
     38 N3         -2.7520    3.8990   -2.3570 n         1 MOL     -0.314911
     39 C13        -3.7900    3.5420   -3.3420 c3        1 MOL      0.130498
     40 C14        -5.2740    3.4730   -2.8320 c         1 MOL      0.358139
     41 O6         -6.1670    3.6100   -3.6530 o         1 MOL     -0.531111
     42 C15        -3.2940    2.2990   -4.0160 c3        1 MOL     -0.296519
     43 C16        -2.8470    1.1360   -3.0980 c         1 MOL      0.726071
     44 O7         -3.3300    1.0450   -1.9390 o         1 MOL     -0.676321
     45 O8         -1.7910    0.5270   -3.3870 o         1 MOL     -0.676321
     46 H19        -2.3540    3.2350   -1.6990 hn        1 MOL      0.336023
     47 H20        -3.8160    4.2610   -4.1580 h1        1 MOL      0.083679
     48 H21        -2.5250    2.6090   -4.7300 hc        1 MOL      0.071189
     49 H22        -4.0780    1.9170   -4.6690 hc        1 MOL      0.071189
     50 N4         -5.5060    3.1610   -1.5050 n         1 MOL     -0.088310
     51 C17        -6.8100    2.7620   -1.0070 c3        1 MOL     -0.307937
     52 C18        -7.1510    1.2850   -1.1280 c         1 MOL      0.585372
     53 O9         -8.3160    1.0330   -0.8320 o         1 MOL     -0.597325
     54 H23        -4.7130    2.9820   -0.9030 hn        1 MOL      0.013033
     55 H24        -7.5680    3.3670   -1.4990 h1        1 MOL      0.144870
     56 H25        -6.9210    2.8950    0.0680 h1        1 MOL      0.144870
     57 N5         -6.2940    0.3250   -1.5220 n         1 MOL     -0.325716
     58 C19        -6.7440   -0.9760   -2.0620 c3        1 MOL      0.060808
     59 C20        -7.3800   -1.9860   -0.9610 c         1 MOL      0.359971
     60 O10        -8.3340   -2.6230   -1.2460 o         1 MOL     -0.527526
     61 C21        -5.6350   -1.7700   -2.8020 c3        1 MOL     -0.428651
     62 C22        -4.2460   -2.0530   -2.1730 c         1 MOL      0.625199
     63 O11        -4.0870   -1.8010   -0.9840 o         1 MOL     -0.664880
     64 O12        -3.2760   -2.4530   -2.8920 o         1 MOL     -0.664880
     65 H26        -5.3980    0.6810   -1.8340 hn        1 MOL      0.284160
     66 H27        -7.5330   -0.8090   -2.7850 h1        1 MOL      0.072752
     67 H28        -5.5610   -1.2540   -3.7640 hc        1 MOL      0.136552
     68 H29        -6.0370   -2.7670   -2.9980 hc        1 MOL      0.136552
     69 N6         -6.6570   -2.2130    0.1460 n         1 MOL     -0.023618
     70 C23        -6.9960   -3.0970    1.2950 c3        1 MOL     -0.056477
     71 C24        -5.9400   -4.1980    1.5680 c         1 MOL      0.588282
     72 O13        -6.1960   -5.2890    2.0220 o         1 MOL     -0.585263
     73 H30        -5.8930   -1.5800    0.3100 hn        1 MOL      0.143993
     74 H31        -7.9220   -3.6010    0.9990 h1        1 MOL      0.029788
     75 H32        -7.1560   -2.5080    2.2000 h1        1 MOL      0.029788
     76 N7         -4.6940   -3.9320    1.1670 n         1 MOL     -0.405597
     77 C25        -3.4720   -4.7280    1.3840 c3        1 MOL      0.115100
     78 C26        -2.2710   -3.7740    1.6200 c         1 MOL      0.312586
     79 O14        -2.3780   -2.5890    1.3260 o         1 MOL     -0.461059
     80 C27        -3.1590   -5.7030    0.2280 c3        1 MOL     -0.386113
     81 C28        -3.0340   -5.0600   -1.1040 c3        1 MOL     -0.131003
     82 C29        -2.7710   -5.9900   -2.3320 c         1 MOL      0.673347
     83 N8         -2.4380   -5.3980   -3.4440 n         1 MOL     -0.795643
     84 O15        -2.9400   -7.2120   -2.3700 o         1 MOL     -0.614274
     85 H33        -4.4960   -3.0110    0.8110 hn        1 MOL      0.261284
     86 H34        -3.5530   -5.3530    2.2780 h1        1 MOL      0.039202
     87 H35        -3.9290   -6.4790    0.1530 hc        1 MOL      0.129163
     88 H36        -2.2710   -6.2660    0.5050 hc        1 MOL      0.129163
     89 H37        -2.3120   -4.2440   -1.0440 hc        1 MOL      0.101792
     90 H38        -3.9150   -4.4660   -1.3330 hc        1 MOL      0.101792
     91 H39        -2.3460   -4.3940   -3.3850 hn        1 MOL      0.362214
     92 H40        -2.3110   -5.9190   -4.3010 hn        1 MOL      0.362214
     93 N9         -1.0860   -4.2530    2.1140 n         1 MOL     -0.212052
     94 C30         0.0620   -3.4030    2.5280 c3        1 MOL     -0.075642
     95 C31         1.1350   -3.5510    1.4740 c         1 MOL      0.490950
     96 O16         1.4930   -4.6670    1.1870 o         1 MOL     -0.613309
     97 C32         0.5120   -3.6820    3.9670 c3        1 MOL      0.214615
     98 C33         1.7950   -2.8490    4.3490 c3        1 MOL     -0.291353
     99 C34        -0.6690   -3.4080    4.9740 c3        1 MOL     -0.291353
    100 H41        -1.0490   -5.2090    2.4240 hn        1 MOL      0.239203
    101 H42        -0.2340   -2.3560    2.4430 h1        1 MOL      0.124421
    102 H43         0.7670   -4.7270    4.1320 hc        1 MOL     -0.020072
    103 H44         1.5550   -1.7920    4.2710 hc        1 MOL      0.063848
    104 H45         2.2000   -3.0420    5.3480 hc        1 MOL      0.063848
    105 H46         2.5960   -3.1490    3.6880 hc        1 MOL      0.063848
    106 H47        -1.3930   -4.1850    4.6990 hc        1 MOL      0.063848
    107 H48        -0.3720   -3.4470    6.0160 hc        1 MOL      0.063848
    108 H49        -1.1100   -2.4180    4.8610 hc        1 MOL      0.063848
    109 N10         1.6380   -2.5100    0.8660 n         1 MOL     -0.052503
    110 C35         2.6930   -2.4190   -0.1570 c3        1 MOL      0.014308
    111 C36         4.0710   -2.2970    0.4910 c         1 MOL      0.321594
    112 O17         4.2140   -1.9260    1.6700 o         1 MOL     -0.431405
    113 C37         2.3320   -1.2770   -1.1090 c3        1 MOL     -0.214020
    114 C38         3.3080   -1.2080   -2.2060 c         1 MOL      0.655302
    115 N11         3.2330   -2.1100   -3.1460 n         1 MOL     -0.747496
    116 O18         4.3300   -0.5210   -2.0780 o         1 MOL     -0.592413
    117 H50         1.1770   -1.6240    1.0270 hn        1 MOL      0.037341
    118 H51         2.7670   -3.3510   -0.7060 h1        1 MOL      0.058040
    119 H52         2.4770   -0.3430   -0.5710 hc        1 MOL      0.092022
    120 H53         1.3630   -1.5170   -1.5450 hc        1 MOL      0.092022
    121 H54         2.5360   -2.8260   -3.2410 hn        1 MOL      0.355091
    122 H55         3.9580   -2.0730   -3.8540 hn        1 MOL      0.355091
    123 N12         5.1940   -2.4850   -0.1760 n         1 MOL     -0.148396
    124 C39         6.5310   -2.3530    0.3490 c3        1 MOL      0.030969
    125 C40         6.8820   -0.9680    0.8030 c         1 MOL      0.215088
    126 O19         7.6730   -0.7630    1.7550 o         1 MOL     -0.518294
    127 C41         7.5810   -2.8130   -0.6310 c3        1 MOL     -0.162631
    128 C42         7.4240   -2.5220   -2.1110 ca        1 MOL      0.054202
    129 C43         6.6680   -3.3580   -2.9310 ca        1 MOL     -0.194428
    130 C44         8.0840   -1.4640   -2.6840 ca        1 MOL     -0.194428
    131 C45         6.6340   -3.1050   -4.3370 ca        1 MOL     -0.246275
    132 C46         8.1260   -1.2140   -4.0500 ca        1 MOL     -0.246275
    133 C47         7.3310   -2.0110   -4.9020 ca        1 MOL      0.355730
    134 O20         7.3310   -1.7710   -6.2220 oh        1 MOL     -0.535175
    135 H56         5.1310   -2.8400   -1.1110 hn        1 MOL      0.103195
    136 H57         6.7270   -3.0130    1.1950 h1        1 MOL      0.079638
    137 H58         7.6690   -3.8940   -0.5060 hc        1 MOL      0.086476
    138 H59         8.5450   -2.4880   -0.2560 hc        1 MOL      0.086476
    139 H60         6.1680   -4.2130   -2.4950 ha        1 MOL      0.143748
    140 H61         8.7210   -0.8800   -2.0320 ha        1 MOL      0.143748
    141 H62         6.0920   -3.7790   -4.9930 ha        1 MOL      0.127970
    142 H63         8.7180   -0.4220   -4.4720 ha        1 MOL      0.127970
    143 H64         8.0140   -1.1000   -6.2460 ho        1 MOL      0.401677
    144 N13         6.3370    0.0840    0.1640 n         1 MOL     -0.007224
    145 C48         6.4810    1.5030    0.4990 c3        1 MOL     -0.350428
    146 C49         5.6600    1.8410    1.7340 c         1 MOL      0.413168
    147 O21         6.0130    2.7690    2.4790 o         1 MOL     -0.514296
    148 C50         5.9620    2.3440   -0.7410 c3        1 MOL      0.053685
    149 C51         6.8150    2.4250   -1.9580 c3        1 MOL     -0.125879
    150 C52         8.2930    2.8210   -1.6470 c         1 MOL      0.662763
    151 O22         9.2750    2.3070   -2.2220 o         1 MOL     -0.706554
    152 O23         8.4440    3.6330   -0.7550 o         1 MOL     -0.706554
    153 H65         5.7530   -0.0420   -0.6500 hn        1 MOL      0.440291
    154 H66         7.5510    1.6860    0.6840 h1        1 MOL      0.222550
    155 H67         5.8270    3.4010   -0.5190 hc        1 MOL      0.026528
    156 H68         4.9770    1.9630   -0.9910 hc        1 MOL      0.026528
    157 H69         6.3420    3.1480   -2.6320 hc        1 MOL     -0.022523
    158 H70         6.8480    1.4420   -2.4030 hc        1 MOL     -0.022523
    159 N14         4.5580    1.1380    1.9260 n         1 MOL     -0.148800
    160 C53         3.4760    1.3300    2.9850 c3        1 MOL     -0.210616
    161 C54         3.9810    0.5950    4.2050 c         1 MOL      0.552477
    162 O24         3.9010    1.1260    5.2760 o         1 MOL     -0.583356
    163 C55         2.1100    0.7860    2.5320 c3        1 MOL      0.033934
    164 C56         1.4000    1.6940    1.5520 c3        1 MOL      0.009422
    165 C57         0.0450    1.0740    1.0280 c         1 MOL      0.646457
    166 O25        -0.6620    1.7460    0.2010 o         1 MOL     -0.631474
    167 O26        -0.2420   -0.1130    1.3110 o         1 MOL     -0.631474
    168 H71         4.4160    0.4260    1.2160 hn        1 MOL      0.073698
    169 H72         3.4860    2.3820    3.2710 h1        1 MOL      0.129742
    170 H73         1.5030    0.6250    3.4270 hc        1 MOL      0.043997
    171 H74         2.1150   -0.1970    2.0620 hc        1 MOL      0.043997
    172 H75         1.9810    1.7980    0.6340 hc        1 MOL     -0.012741
    173 H76         1.2600    2.6580    2.0560 hc        1 MOL     -0.012741
    174 N15         4.5530   -0.5860    4.1190 n         1 MOL     -0.098125
    175 C58         4.9630   -1.3990    5.2690 c3        1 MOL     -0.284509
    176 H77         4.1140   -1.5310    5.9400 h1        1 MOL      0.093855
    177 H78         5.3060   -2.3730    4.9210 h1        1 MOL      0.093855
    178 H79         5.7710   -0.8960    5.8000 h1        1 MOL      0.093855
    179 H80         4.6120   -1.1310    3.2730 hn        1 MOL      0.168586
    180 Ca1        -2.7750   -0.0220    0.2570 Ca        1 MOL      1.734254
    181 O27        -2.6980    0.2300    3.0340 oh        1 MOL     -0.888821
    182 H81        -2.0680    0.6930    3.5830 ho        1 MOL      0.413069
    183 H82        -3.4710    0.1280    3.5840 ho        1 MOL      0.413069
    184 O28        -5.2970    0.0330    1.4920 oh        1 MOL     -0.888821
    185 H83        -5.4750    0.9510    1.2790 ho        1 MOL      0.413069
    186 H84        -5.4720   -0.0350    2.4260 ho        1 MOL      0.413069
    187 O29        -1.2230   -1.3260   -1.6160 oh        1 MOL     -0.888821
    188 H85        -1.2240   -0.6440   -2.2950 ho        1 MOL      0.413069
    189 H86        -1.8420   -1.9830   -1.9310 ho        1 MOL      0.413069
@<TRIPOS>BOND
     1    1    2 1   
     2    1    4 1   
     3    1    5 1   
     4    1    6 1   
     5    2    3 2   
     6    2    7 1   
     7    7    8 1   
     8    7   15 1   
     9    8    9 1   
    10    8   11 1   
    11    8   16 1   
    12    9   10 2   
    13    9   19 1   
    14   11   12 1   
    15   11   17 1   
    16   11   18 1   
    17   12   13 1   
    18   12   14 1   
    19   19   20 1   
    20   19   27 1   
    21   20   21 1   
    22   20   23 1   
    23   20   28 1   
    24   21   22 2   
    25   21   38 1   
    26   23   24 1   
    27   23   25 1   
    28   23   29 1   
    29   24   26 1   
    30   24   30 1   
    31   24   31 1   
    32   25   32 1   
    33   25   33 1   
    34   25   34 1   
    35   26   35 1   
    36   26   36 1   
    37   26   37 1   
    38   38   39 1   
    39   38   46 1   
    40   39   40 1   
    41   39   42 1   
    42   39   47 1   
    43   40   41 2   
    44   40   50 1   
    45   42   43 1   
    46   42   48 1   
    47   42   49 1   
    48   43   44 1   
    49   43   45 1   
    50   50   51 1   
    51   50   54 1   
    52   51   52 1   
    53   51   55 1   
    54   51   56 1   
    55   52   53 2   
    56   52   57 1   
    57   57   58 1   
    58   57   65 1   
    59   58   59 1   
    60   58   61 1   
    61   58   66 1   
    62   59   60 2   
    63   59   69 1   
    64   61   62 1   
    65   61   67 1   
    66   61   68 1   
    67   62   63 1   
    68   62   64 1   
    69   69   70 1   
    70   69   73 1   
    71   70   71 1   
    72   70   74 1   
    73   70   75 1   
    74   71   72 2   
    75   71   76 1   
    76   76   77 1   
    77   76   85 1   
    78   77   78 1   
    79   77   80 1   
    80   77   86 1   
    81   78   79 2   
    82   78   93 1   
    83   80   81 1   
    84   80   87 1   
    85   80   88 1   
    86   81   82 1   
    87   81   89 1   
    88   81   90 1   
    89   82   83 1   
    90   82   84 2   
    91   83   91 1   
    92   83   92 1   
    93   93   94 1   
    94   93  100 1   
    95   94   95 1   
    96   94   97 1   
    97   94  101 1   
    98   95   96 2   
    99   95  109 1   
   100   97   98 1   
   101   97   99 1   
   102   97  102 1   
   103   98  103 1   
   104   98  104 1   
   105   98  105 1   
   106   99  106 1   
   107   99  107 1   
   108   99  108 1   
   109  109  110 1   
   110  109  117 1   
   111  110  111 1   
   112  110  113 1   
   113  110  118 1   
   114  111  112 2   
   115  111  123 1   
   116  113  114 1   
   117  113  119 1   
   118  113  120 1   
   119  114  115 1   
   120  114  116 2   
   121  115  121 1   
   122  115  122 1   
   123  123  124 1   
   124  123  135 1   
   125  124  125 1   
   126  124  127 1   
   127  124  136 1   
   128  125  126 2   
   129  125  144 1   
   130  127  128 1   
   131  127  137 1   
   132  127  138 1   
   133  128  129 ar  
   134  128  130 ar  
   135  129  131 ar  
   136  129  139 1   
   137  130  132 ar  
   138  130  140 1   
   139  131  133 ar  
   140  131  141 1   
   141  132  133 ar  
   142  132  142 1   
   143  133  134 1   
   144  134  143 1   
   145  144  145 1   
   146  144  153 1   
   147  145  146 1   
   148  145  148 1   
   149  145  154 1   
   150  146  147 2   
   151  146  159 1   
   152  148  149 1   
   153  148  155 1   
   154  148  156 1   
   155  149  150 1   
   156  149  157 1   
   157  149  158 1   
   158  150  151 1   
   159  150  152 1   
   160  159  160 1   
   161  159  168 1   
   162  160  161 1   
   163  160  163 1   
   164  160  169 1   
   165  161  162 2   
   166  161  174 1   
   167  163  164 1   
   168  163  170 1   
   169  163  171 1   
   170  164  165 1   
   171  164  172 1   
   172  164  173 1   
   173  165  166 1   
   174  165  167 1   
   175  174  175 1   
   176  174  179 1   
   177  175  176 1   
   178  175  177 1   
   179  175  178 1   
   180  181  182 1   
   181  181  183 1   
   182  184  185 1   
   183  184  186 1   
   184  187  188 1   
   185  187  189 1   
@<TRIPOS>SUBSTRUCTURE
     1 MOL         1 TEMP              0 ****  ****    0 ROOT
