@<TRIPOS>MOLECULE
MOL
  189   185     1     0     0
SMALL
resp


@<TRIPOS>ATOM
      1 C1          0.5460    4.2410   -3.8710 c3        1 MOL     -0.223414
      2 C2          1.1410    3.6160   -2.6480 c         1 MOL      0.749814
      3 O1          0.6420    3.7030   -1.5390 o         1 MOL     -0.633216
      4 H1         -0.4990    4.4860   -3.6810 hc        1 MOL      0.057164
      5 H2          1.0920    5.1510   -4.1170 hc        1 MOL      0.057164
      6 H3          0.6080    3.5420   -4.7040 hc        1 MOL      0.057164
      7 N1          2.1940    2.8410   -2.8120 n         1 MOL     -0.675579
      8 C3          2.8040    1.9280   -1.7950 c3        1 MOL      0.161989
      9 C4          3.7810    2.7680   -0.9730 c         1 MOL      0.540794
     10 O2          4.9860    2.6820   -0.9880 o         1 MOL     -0.509777
     11 C5          3.5200    0.7190   -2.3890 c3        1 MOL     -0.063548
     12 C6          4.1400   -0.2780   -1.3560 c         1 MOL      0.514711
     13 O3          3.5210   -0.5910   -0.3190 o         1 MOL     -0.627134
     14 O4          5.2780   -0.7900   -1.6890 o         1 MOL     -0.627134
     15 H4          2.4380    2.6750   -3.7690 hn        1 MOL      0.315166
     16 H5          2.0190    1.5370   -1.1420 h1        1 MOL      0.139361
     17 H6          4.2860    1.0510   -3.0890 hc        1 MOL      0.009432
     18 H7          2.7630    0.1430   -2.9320 hc        1 MOL      0.009432
     19 N2          3.2390    3.7380   -0.2660 n         1 MOL     -0.425203
     20 C7          3.9650    4.7240    0.6030 c3        1 MOL      0.010305
     21 C8          4.6090    4.1140    1.8380 c         1 MOL      0.520706
     22 O5          5.5240    4.7920    2.3220 o         1 MOL     -0.564229
     23 C9          3.1820    6.0020    0.8660 c3        1 MOL     -0.172982
     24 C10         2.9520    6.8140   -0.3980 c3        1 MOL      0.100130
     25 C11         4.2650    7.4510   -0.9620 c3        1 MOL     -0.232323
     26 C12         3.8420    8.4290   -2.1170 c3        1 MOL      0.019788
     27 N3          3.3800    9.6950   -1.4850 n4        1 MOL     -0.460721
     28 H8          2.2430    3.8780   -0.4000 hn        1 MOL      0.296696
     29 H9          4.7810    5.0260   -0.0540 h1        1 MOL      0.070542
     30 H10         3.6350    6.5470    1.6880 hc        1 MOL      0.071276
     31 H11         2.2370    5.7450    1.3470 hc        1 MOL      0.071276
     32 H12         2.2050    7.5700   -0.1590 hc        1 MOL      0.007652
     33 H13         2.4360    6.3190   -1.2230 hc        1 MOL      0.007652
     34 H14         4.8920    6.7360   -1.4920 hc        1 MOL      0.120460
     35 H15         4.8300    7.9500   -0.1790 hc        1 MOL      0.120460
     36 H16         3.1940    7.9350   -2.8450 hx        1 MOL      0.101860
     37 H17         4.7480    8.7110   -2.6460 hx        1 MOL      0.101860
     38 H18         2.6580    9.6410   -0.7780 hn        1 MOL      0.353846
     39 H19         4.2470   10.1300   -1.2370 hn        1 MOL      0.353846
     40 H20         2.9230   10.2690   -2.1840 hn        1 MOL      0.353846
     41 N4          4.2150    2.9180    2.3460 n         1 MOL     -0.375124
     42 C13         5.0660    2.2820    3.3680 c3        1 MOL      0.115806
     43 C14         6.1730    1.4060    2.7630 c         1 MOL      0.480633
     44 O6          7.1800    1.1850    3.3880 o         1 MOL     -0.546707
     45 C15         4.1400    1.3940    4.2030 c3        1 MOL     -0.306882
     46 C16         3.1710    0.4460    3.4300 c         1 MOL      0.666328
     47 O7          3.3840    0.1730    2.2270 o         1 MOL     -0.649505
     48 O8          2.1250   -0.0320    3.8920 o         1 MOL     -0.649505
     49 H21         3.4530    2.4520    1.8770 hn        1 MOL      0.263246
     50 H22         5.5680    3.0220    3.9820 h1        1 MOL      0.080880
     51 H23         3.5210    2.0090    4.8600 hc        1 MOL      0.080983
     52 H24         4.8190    0.8320    4.8330 hc        1 MOL      0.080983
     53 N5          6.0580    0.9990    1.4840 n         1 MOL     -0.177725
     54 C17         7.1620    0.1820    0.9190 c3        1 MOL     -0.087648
     55 C18         7.1780   -1.2650    1.3180 c         1 MOL      0.476903
     56 O9          8.2260   -1.9220    1.3190 o         1 MOL     -0.603942
     57 H25         5.2220    1.1580    0.9330 hn        1 MOL      0.073085
     58 H26         8.1840    0.5550    0.9870 h1        1 MOL      0.090204
     59 H27         6.9970    0.0770   -0.1510 h1        1 MOL      0.090204
     60 N6          6.0670   -1.9210    1.5160 n         1 MOL     -0.198112
     61 C19         6.0280   -3.4010    1.8550 c3        1 MOL      0.030285
     62 C20         5.9500   -4.2140    0.5800 c         1 MOL      0.449527
     63 O10         6.0240   -5.4700    0.6570 o         1 MOL     -0.575561
     64 C21         4.8580   -3.6120    2.8690 c3        1 MOL     -0.329267
     65 C22         3.4700   -3.3030    2.3140 c         1 MOL      0.787378
     66 O11         2.6180   -2.8590    3.1190 o         1 MOL     -0.726355
     67 O12         3.1500   -3.3790    1.0980 o         1 MOL     -0.726355
     68 H28         5.2670   -1.3100    1.5000 hn        1 MOL      0.184784
     69 H29         6.9840   -3.6890    2.2750 h1        1 MOL      0.113264
     70 H30         5.0560   -2.9180    3.6790 hc        1 MOL      0.100582
     71 H31         4.8840   -4.6500    3.1850 hc        1 MOL      0.100582
     72 N7          5.8270   -3.6640   -0.6110 n         1 MOL     -0.270976
     73 C23         5.6780   -4.4340   -1.8450 c3        1 MOL      0.045448
     74 C24         4.1770   -4.6450   -2.1770 c         1 MOL      0.430226
     75 O13         3.8950   -5.5500   -3.0150 o         1 MOL     -0.584092
     76 H32         5.8150   -2.6580   -0.6470 hn        1 MOL      0.238416
     77 H33         6.2810   -5.3140   -2.0790 h1        1 MOL      0.056890
     78 H34         5.9890   -3.7240   -2.6110 h1        1 MOL      0.056890
     79 N8          3.1560   -4.0040   -1.6350 n         1 MOL     -0.149739
     80 C25         1.7710   -4.3540   -1.9950 c3        1 MOL     -0.275082
     81 C26         0.8950   -3.0500   -1.9400 c         1 MOL      0.610853
     82 O14         1.0650   -2.1520   -1.0750 o         1 MOL     -0.586984
     83 C27         1.1770   -5.4040   -1.0510 c3        1 MOL      0.615127
     84 C28         1.5250   -6.8960   -1.4350 c3        1 MOL     -0.628881
     85 O15         1.5830   -5.2950    0.2690 oh        1 MOL     -0.676439
     86 H35         3.3340   -3.4340   -0.8300 hn        1 MOL      0.195750
     87 H36         1.7460   -4.8080   -2.9830 h1        1 MOL      0.131272
     88 H37         0.1100   -5.2200   -1.1300 h1        1 MOL     -0.076980
     89 H38         2.2580   -4.6060    0.2710 ho        1 MOL      0.424234
     90 H39         0.7970   -7.4400   -0.8460 hc        1 MOL      0.165538
     91 H40         1.3820   -6.9240   -2.5190 hc        1 MOL      0.165538
     92 H41         2.5730   -6.9850   -1.1440 hc        1 MOL      0.165538
     93 N9         -0.1350   -3.0140   -2.8400 n         1 MOL     -0.538378
     94 C29        -1.2420   -2.0370   -2.8730 c3        1 MOL     -0.063077
     95 C30        -2.4410   -2.6700   -2.2420 c         1 MOL      0.545215
     96 O16        -2.9040   -3.7500   -2.5900 o         1 MOL     -0.579529
     97 C31        -1.4160   -1.5140   -4.3260 c3        1 MOL      0.197719
     98 C32        -0.1140   -0.8140   -4.7010 c3        1 MOL      0.223038
     99 C33        -2.5040   -0.5370   -4.4230 c3        1 MOL     -0.234807
    100 C34        -0.0680   -0.4830   -6.2510 c3        1 MOL     -0.126172
    101 H42        -0.3050   -3.8420   -3.3800 hn        1 MOL      0.288476
    102 H43        -0.9600   -1.1590   -2.2960 h1        1 MOL      0.131352
    103 H44        -1.5890   -2.3410   -5.0110 hc        1 MOL     -0.000560
    104 H45         0.6690   -1.5590   -4.6250 hc        1 MOL     -0.052230
    105 H46         0.0590    0.0890   -4.1240 hc        1 MOL     -0.052230
    106 H47        -3.4250   -0.9860   -4.0500 hc        1 MOL      0.021516
    107 H48        -2.3170    0.3510   -3.8220 hc        1 MOL      0.021516
    108 H49        -2.6820   -0.3770   -5.4850 hc        1 MOL      0.021516
    109 H50        -0.2570   -1.3660   -6.8600 hc        1 MOL      0.016890
    110 H51        -0.7850    0.3220   -6.4090 hc        1 MOL      0.016890
    111 H52         0.9190   -0.0770   -6.4700 hc        1 MOL      0.016890
    112 N10        -3.0370   -1.9160   -1.3160 n         1 MOL      0.002945
    113 C35        -4.2740   -2.2640   -0.6230 c3        1 MOL     -0.223465
    114 C36        -5.4720   -1.5090   -1.1490 c         1 MOL      0.393417
    115 O17        -5.3090   -0.5220   -1.8250 o         1 MOL     -0.357252
    116 C37        -4.1940   -2.0260    0.8670 c3        1 MOL      0.524083
    117 C38        -3.4180   -3.0990    1.5650 c3        1 MOL     -0.299635
    118 O18        -3.6780   -0.7460    1.1440 oh        1 MOL     -0.662632
    119 H53        -2.5200   -1.0990   -0.9810 hn        1 MOL      0.115512
    120 H54        -4.5050   -3.3350   -0.6450 h1        1 MOL      0.079864
    121 H55        -5.1470   -2.1220    1.3820 h1        1 MOL     -0.044962
    122 H56        -2.7320   -0.6680    1.0060 ho        1 MOL      0.493159
    123 H57        -3.3340   -2.7130    2.5810 hc        1 MOL      0.058985
    124 H58        -3.8400   -4.1030    1.5980 hc        1 MOL      0.058985
    125 H59        -2.4640   -3.2170    1.0540 hc        1 MOL      0.058985
    126 N11        -6.6490   -1.9610   -0.7670 n         1 MOL     -0.285380
    127 C39        -7.8520   -1.1070   -0.8870 c3        1 MOL     -0.309864
    128 C40        -7.6790    0.2580   -0.2950 c         1 MOL      0.392062
    129 O19        -8.2150    1.2590   -0.7590 o         1 MOL     -0.482105
    130 C41        -9.0850   -1.7580   -0.1530 c3        1 MOL      0.418100
    131 C42        -9.4420   -3.1280   -0.7620 c3        1 MOL     -0.498357
    132 O20        -8.8080   -1.9980    1.2140 oh        1 MOL     -0.603696
    133 H60        -6.6040   -2.8510   -0.2840 hn        1 MOL      0.257336
    134 H61        -8.1180   -1.1310   -1.9460 h1        1 MOL      0.180215
    135 H62        -9.9020   -1.0430   -0.2310 h1        1 MOL      0.032111
    136 H63        -9.4080   -1.4350    1.7230 ho        1 MOL      0.322405
    137 H64       -10.4250   -3.3190   -0.3160 hc        1 MOL      0.143427
    138 H65        -9.6670   -3.1140   -1.8270 hc        1 MOL      0.143427
    139 H66        -8.7700   -3.9490   -0.5080 hc        1 MOL      0.143427
    140 N12        -6.8560    0.3280    0.8100 n         1 MOL     -0.149497
    141 C43        -6.5770    1.5730    1.6060 c3        1 MOL     -0.010143
    142 C44        -5.6020    2.4380    0.8920 c         1 MOL      0.390019
    143 O21        -5.8900    3.6390    0.8060 o         1 MOL     -0.537723
    144 C45        -6.0870    1.1850    3.0060 c3        1 MOL     -0.369040
    145 C46        -7.1480    0.5610    3.8830 c3        1 MOL      0.251725
    146 C47        -8.2710    1.5130    4.2500 c3        1 MOL     -0.117665
    147 C48        -9.0840    1.0040    5.4850 c3        1 MOL     -0.130070
    148 N13        -9.8160   -0.2390    5.1390 n4        1 MOL     -0.307661
    149 H67        -6.3820   -0.5300    1.0160 hn        1 MOL      0.245410
    150 H68        -7.5130    2.1160    1.6790 h1        1 MOL      0.072103
    151 H69        -5.7030    2.0960    3.4630 hc        1 MOL      0.131421
    152 H70        -5.2970    0.4380    2.9460 hc        1 MOL      0.131421
    153 H71        -6.5710    0.2250    4.7420 hc        1 MOL     -0.045004
    154 H72        -7.3720   -0.3430    3.3270 hc        1 MOL     -0.045004
    155 H73        -8.9430    1.5660    3.3910 hc        1 MOL      0.080678
    156 H74        -7.8600    2.5000    4.4490 hc        1 MOL      0.080678
    157 H75        -9.6660    1.8880    5.7540 hx        1 MOL      0.142673
    158 H76        -8.3890    0.9000    6.3180 hx        1 MOL      0.142673
    159 H77       -10.3420   -0.1940    4.2850 hn        1 MOL      0.285771
    160 H78        -9.1430   -0.9770    5.0100 hn        1 MOL      0.285771
    161 H79       -10.4600   -0.5230    5.8610 hn        1 MOL      0.285771
    162 N14        -4.5620    1.9950    0.1980 n         1 MOL      0.137487
    163 C49        -3.6220    2.8720   -0.5630 c3        1 MOL     -0.361373
    164 C50        -4.3610    3.3650   -1.8220 c         1 MOL      0.523351
    165 O22        -4.1860    4.4940   -2.2730 o         1 MOL     -0.563544
    166 C51        -2.3130    2.0640   -0.6870 c3        1 MOL      0.370952
    167 C52        -1.5810    1.8160    0.6630 c3        1 MOL     -0.171810
    168 C53        -0.5670    0.6970    0.4970 c         1 MOL      0.864358
    169 O23         0.6750    0.9680    0.5170 o         1 MOL     -0.857782
    170 O24        -1.0280   -0.4590    0.3280 o         1 MOL     -0.857782
    171 H80        -4.3890    1.0010    0.1990 hn        1 MOL     -0.199047
    172 H81        -3.3370    3.7040    0.0800 h1        1 MOL      0.139689
    173 H82        -1.6680    2.6890   -1.2920 hc        1 MOL     -0.048265
    174 H83        -2.6380    1.1580   -1.2020 hc        1 MOL     -0.048265
    175 H84        -2.3060    1.5750    1.4400 hc        1 MOL      0.027336
    176 H85        -1.1270    2.7310    1.0490 hc        1 MOL      0.027336
    177 N15        -5.1860    2.5540   -2.4590 n         1 MOL     -0.102467
    178 C54        -5.9470    2.9350   -3.6540 c3        1 MOL     -0.267277
    179 H86        -6.9850    3.1200   -3.3790 h1        1 MOL      0.108615
    180 H87        -5.5190    3.8410   -4.0850 h1        1 MOL      0.108615
    181 H88        -5.9040    2.1280   -4.3850 h1        1 MOL      0.108615
    182 H89        -5.2470    1.6330   -2.0370 hn        1 MOL      0.149099
    183 Ca1         1.5500   -1.2410    1.3180 Ca        1 MOL      1.835109
    184 O25         0.2600   -3.5480    1.5750 oh        1 MOL     -0.850262
    185 H90         0.6380   -4.3260    1.1590 ho        1 MOL      0.403370
    186 H91        -0.1430   -3.8810    2.3760 ho        1 MOL      0.403370
    187 O26        -0.5050   -1.1050    3.3350 oh        1 MOL     -0.850262
    188 H92        -0.2670   -1.7130    4.0280 ho        1 MOL      0.403370
    189 H93        -1.3120   -0.6850    3.6420 ho        1 MOL      0.403370
@<TRIPOS>BOND
     1    1    2 1   
     2    1    4 1   
     3    1    5 1   
     4    1    6 1   
     5    2    3 2   
     6    2    7 1   
     7    7    8 1   
     8    7   15 1   
     9    8    9 1   
    10    8   11 1   
    11    8   16 1   
    12    9   10 2   
    13    9   19 1   
    14   11   12 1   
    15   11   17 1   
    16   11   18 1   
    17   12   13 1   
    18   12   14 1   
    19   19   20 1   
    20   19   28 1   
    21   20   21 1   
    22   20   23 1   
    23   20   29 1   
    24   21   22 2   
    25   21   41 1   
    26   23   24 1   
    27   23   30 1   
    28   23   31 1   
    29   24   25 1   
    30   24   32 1   
    31   24   33 1   
    32   25   26 1   
    33   25   34 1   
    34   25   35 1   
    35   26   27 1   
    36   26   36 1   
    37   26   37 1   
    38   27   38 1   
    39   27   39 1   
    40   27   40 1   
    41   41   42 1   
    42   41   49 1   
    43   42   43 1   
    44   42   45 1   
    45   42   50 1   
    46   43   44 2   
    47   43   53 1   
    48   45   46 1   
    49   45   51 1   
    50   45   52 1   
    51   46   47 1   
    52   46   48 1   
    53   53   54 1   
    54   53   57 1   
    55   54   55 1   
    56   54   58 1   
    57   54   59 1   
    58   55   56 2   
    59   55   60 1   
    60   60   61 1   
    61   60   68 1   
    62   61   62 1   
    63   61   64 1   
    64   61   69 1   
    65   62   63 2   
    66   62   72 1   
    67   64   65 1   
    68   64   70 1   
    69   64   71 1   
    70   65   66 1   
    71   65   67 1   
    72   72   73 1   
    73   72   76 1   
    74   73   74 1   
    75   73   77 1   
    76   73   78 1   
    77   74   75 2   
    78   74   79 1   
    79   79   80 1   
    80   79   86 1   
    81   80   81 1   
    82   80   83 1   
    83   80   87 1   
    84   81   82 2   
    85   81   93 1   
    86   83   84 1   
    87   83   85 1   
    88   83   88 1   
    89   84   90 1   
    90   84   91 1   
    91   84   92 1   
    92   85   89 1   
    93   93   94 1   
    94   93  101 1   
    95   94   95 1   
    96   94   97 1   
    97   94  102 1   
    98   95   96 2   
    99   95  112 1   
   100   97   98 1   
   101   97   99 1   
   102   97  103 1   
   103   98  100 1   
   104   98  104 1   
   105   98  105 1   
   106   99  106 1   
   107   99  107 1   
   108   99  108 1   
   109  100  109 1   
   110  100  110 1   
   111  100  111 1   
   112  112  113 1   
   113  112  119 1   
   114  113  114 1   
   115  113  116 1   
   116  113  120 1   
   117  114  115 2   
   118  114  126 1   
   119  116  117 1   
   120  116  118 1   
   121  116  121 1   
   122  117  123 1   
   123  117  124 1   
   124  117  125 1   
   125  118  122 1   
   126  126  127 1   
   127  126  133 1   
   128  127  128 1   
   129  127  130 1   
   130  127  134 1   
   131  128  129 2   
   132  128  140 1   
   133  130  131 1   
   134  130  132 1   
   135  130  135 1   
   136  131  137 1   
   137  131  138 1   
   138  131  139 1   
   139  132  136 1   
   140  140  141 1   
   141  140  149 1   
   142  141  142 1   
   143  141  144 1   
   144  141  150 1   
   145  142  143 2   
   146  142  162 1   
   147  144  145 1   
   148  144  151 1   
   149  144  152 1   
   150  145  146 1   
   151  145  153 1   
   152  145  154 1   
   153  146  147 1   
   154  146  155 1   
   155  146  156 1   
   156  147  148 1   
   157  147  157 1   
   158  147  158 1   
   159  148  159 1   
   160  148  160 1   
   161  148  161 1   
   162  162  163 1   
   163  162  171 1   
   164  163  164 1   
   165  163  166 1   
   166  163  172 1   
   167  164  165 2   
   168  164  177 1   
   169  166  167 1   
   170  166  173 1   
   171  166  174 1   
   172  167  168 1   
   173  167  175 1   
   174  167  176 1   
   175  168  169 1   
   176  168  170 1   
   177  177  178 1   
   178  177  182 1   
   179  178  179 1   
   180  178  180 1   
   181  178  181 1   
   182  184  185 1   
   183  184  186 1   
   184  187  188 1   
   185  187  189 1   
@<TRIPOS>SUBSTRUCTURE
     1 MOL         1 TEMP              0 ****  ****    0 ROOT
