@<TRIPOS>MOLECULE
MOL
  189   185     1     0     0
SMALL
resp


@<TRIPOS>ATOM
      1 C1          0.6790    2.6680    4.8910 c3        1 MOL     -0.323410
      2 C2          0.0290    2.4600    3.4830 c         1 MOL      0.575830
      3 O1          0.4760    3.0910    2.4930 o         1 MOL     -0.610415
      4 H1         -0.0900    2.5900    5.6600 hc        1 MOL      0.086259
      5 H2          1.4370    1.9040    5.0580 hc        1 MOL      0.086259
      6 H3          1.1390    3.6540    4.9380 hc        1 MOL      0.086259
      7 N1         -1.0760    1.7330    3.4620 n         1 MOL     -0.433703
      8 C3         -1.8890    1.4380    2.2550 c3        1 MOL      0.087760
      9 C4         -2.6000    2.7000    1.6450 c         1 MOL      0.392586
     10 O2         -3.7100    3.0960    2.0360 o         1 MOL     -0.507163
     11 C5         -2.9030    0.3790    2.6190 c3        1 MOL     -0.025821
     12 C6         -3.7810   -0.1190    1.4950 c         1 MOL      0.566821
     13 O3         -4.8770   -0.6630    1.7690 o         1 MOL     -0.622846
     14 O4         -3.4460    0.1090    0.2890 o         1 MOL     -0.622846
     15 H4         -1.4000    1.3080    4.3250 hn        1 MOL      0.282199
     16 H5         -1.2200    0.9980    1.5140 h1        1 MOL      0.009183
     17 H6         -3.5840    0.7510    3.3840 hc        1 MOL      0.016213
     18 H7         -2.4160   -0.4600    3.1170 hc        1 MOL      0.016213
     19 N2         -1.7980    3.4740    0.9240 n         1 MOL     -0.204933
     20 C7         -2.2240    4.8710    0.5550 c3        1 MOL      0.016344
     21 C8         -3.2160    5.0050   -0.6170 c         1 MOL      0.470933
     22 O5         -4.0580    5.8750   -0.4910 o         1 MOL     -0.529286
     23 C9         -0.8680    5.6180    0.3050 c3        1 MOL     -0.166498
     24 C10        -0.4210    6.2460    1.6440 c3        1 MOL      0.063576
     25 C11        -1.1400    7.6070    1.9880 c3        1 MOL     -0.392005
     26 C12        -0.5630    7.9940    3.3830 c3        1 MOL      0.177344
     27 N3         -1.0740    9.2790    3.9470 n4        1 MOL     -0.406810
     28 H8         -0.8830    3.0960    0.7700 hn        1 MOL      0.394357
     29 H9         -2.6700    5.4090    1.3990 h1        1 MOL      0.064958
     30 H10        -1.0650    6.4130   -0.4190 hc        1 MOL      0.057081
     31 H11        -0.1130    4.9050   -0.0380 hc        1 MOL      0.057081
     32 H12         0.6670    6.3180    1.6050 hc        1 MOL      0.039994
     33 H13        -0.6720    5.5030    2.4000 hc        1 MOL      0.039994
     34 H14        -2.2170    7.4460    2.0700 hc        1 MOL      0.135186
     35 H15        -0.9590    8.3290    1.1960 hc        1 MOL      0.135186
     36 H16         0.5170    7.9450    3.2810 hx        1 MOL      0.061048
     37 H17        -0.6790    7.2240    4.1390 hx        1 MOL      0.061048
     38 H18        -0.5490    9.5940    4.7510 hn        1 MOL      0.337697
     39 H19        -1.1630   10.0130    3.2550 hn        1 MOL      0.337697
     40 H20        -2.0510    9.0640    4.1130 hn        1 MOL      0.337697
     41 N4         -3.1930    3.9990   -1.5400 n         1 MOL     -0.418084
     42 C13        -4.2540    3.7410   -2.5290 c3        1 MOL      0.152642
     43 C14        -5.4760    2.9580   -2.0100 c         1 MOL      0.360040
     44 O6         -6.5450    3.0390   -2.6530 o         1 MOL     -0.530025
     45 C15        -3.7080    2.9190   -3.7480 c3        1 MOL     -0.367431
     46 C16        -2.6520    1.8800   -3.4720 c         1 MOL      0.848995
     47 O7         -2.9210    0.9670   -2.6440 o         1 MOL     -0.743844
     48 O8         -1.5900    1.9120   -4.1130 o         1 MOL     -0.743844
     49 H21        -2.4380    3.3440   -1.4260 hn        1 MOL      0.241439
     50 H22        -4.7550    4.6550   -2.8730 h1        1 MOL      0.067851
     51 H23        -3.3020    3.6380   -4.4520 hc        1 MOL      0.092525
     52 H24        -4.5490    2.4560   -4.2570 hc        1 MOL      0.092525
     53 N5         -5.3990    2.2970   -0.8460 n         1 MOL      0.067156
     54 C17        -6.5630    1.6780   -0.1620 c3        1 MOL     -0.374399
     55 C18        -7.1310    0.4010   -0.7370 c         1 MOL      0.613467
     56 O9         -8.3290    0.2470   -0.9450 o         1 MOL     -0.578508
     57 H25        -4.4790    2.1100   -0.4740 hn        1 MOL     -0.021288
     58 H26        -7.3480    2.4290   -0.2370 h1        1 MOL      0.155140
     59 H27        -6.2950    1.5010    0.8820 h1        1 MOL      0.155140
     60 N6         -6.2590   -0.6270   -1.1030 n         1 MOL     -0.174079
     61 C19        -6.6560   -1.8380   -1.7640 c3        1 MOL     -0.009139
     62 C20        -6.8230   -3.0920   -0.8760 c         1 MOL      0.402864
     63 O10        -7.2200   -4.2140   -1.2600 o         1 MOL     -0.531388
     64 C21        -5.6800   -2.1590   -2.8740 c3        1 MOL     -0.205458
     65 C22        -4.1940   -2.3320   -2.4290 c         1 MOL      0.770356
     66 O11        -3.9460   -2.6520   -1.2690 o         1 MOL     -0.764591
     67 O12        -3.1960   -2.2310   -3.2130 o         1 MOL     -0.764591
     68 H28        -5.3160   -0.4940   -0.7720 hn        1 MOL      0.065806
     69 H29        -7.6310   -1.7400   -2.2420 h1        1 MOL      0.121652
     70 H30        -5.6720   -1.2880   -3.5180 hc        1 MOL      0.063823
     71 H31        -5.9870   -3.0630   -3.4000 hc        1 MOL      0.063823
     72 N7         -6.6880   -2.8250    0.4320 n         1 MOL     -0.360068
     73 C23        -6.6790   -3.7780    1.5850 c3        1 MOL     -0.003034
     74 C24        -5.2660   -4.2170    1.9450 c         1 MOL      0.445666
     75 O13        -5.1080   -4.8600    2.9230 o         1 MOL     -0.568433
     76 H32        -6.3870   -1.8750    0.6440 hn        1 MOL      0.248663
     77 H33        -7.2430   -4.6560    1.2810 h1        1 MOL      0.081697
     78 H34        -7.2500   -3.3790    2.4150 h1        1 MOL      0.081697
     79 N8         -4.1920   -3.7700    1.2910 n         1 MOL     -0.105790
     80 C25        -2.8940   -4.4560    1.3040 c3        1 MOL     -0.300059
     81 C26        -1.6810   -3.4560    1.2700 c         1 MOL      0.691245
     82 O14        -1.8240   -2.4010    0.6540 o         1 MOL     -0.642338
     83 C27        -2.7770   -5.5380    0.1960 c3        1 MOL      0.427712
     84 C28        -3.9670   -6.4750    0.2180 c3        1 MOL     -0.253505
     85 O15        -2.8430   -4.9070   -1.0850 oh        1 MOL     -0.755638
     86 H35        -4.2570   -3.1880    0.4640 hn        1 MOL      0.200773
     87 H36        -2.7810   -4.9780    2.2480 h1        1 MOL      0.090259
     88 H37        -1.8260   -6.0420    0.3640 h1        1 MOL     -0.024078
     89 H38        -3.1370   -3.9910   -0.9930 ho        1 MOL      0.634247
     90 H39        -3.9180   -7.2270   -0.5730 hc        1 MOL      0.064382
     91 H40        -3.9300   -7.1450    1.0770 hc        1 MOL      0.064382
     92 H41        -4.9100   -5.9350    0.0910 hc        1 MOL      0.064382
     93 N9         -0.5120   -3.8130    1.8220 n         1 MOL     -0.535168
     94 C29         0.7580   -3.0520    1.7900 c3        1 MOL      0.019388
     95 C30         1.9140   -3.6930    1.0310 c         1 MOL      0.402326
     96 O16         2.1960   -4.8740    1.1620 o         1 MOL     -0.534842
     97 C31         1.3230   -2.8780    3.2520 c3        1 MOL      0.145485
     98 C32         0.4360   -1.9340    4.0740 c3        1 MOL     -0.053449
     99 C33         2.7890   -2.3780    3.3480 c3        1 MOL     -0.325821
    100 C34         0.6470   -2.0900    5.5780 c3        1 MOL     -0.069797
    101 H42        -0.4570   -4.6500    2.3910 hn        1 MOL      0.304084
    102 H43         0.5880   -2.0220    1.4700 h1        1 MOL      0.134718
    103 H44         1.2510   -3.8660    3.7150 hc        1 MOL      0.012147
    104 H45        -0.5880   -1.9850    3.7030 hc        1 MOL      0.021014
    105 H46         0.7960   -0.9430    3.8140 hc        1 MOL      0.021014
    106 H47         2.9880   -1.4870    2.7510 hc        1 MOL      0.066707
    107 H48         3.0950   -2.1110    4.3590 hc        1 MOL      0.066707
    108 H49         3.4440   -3.1790    3.0040 hc        1 MOL      0.066707
    109 H50        -0.0360   -1.4900    6.1750 hc        1 MOL      0.019264
    110 H51         0.4640   -3.0970    5.9410 hc        1 MOL      0.019264
    111 H52         1.6490   -1.7860    5.8580 hc        1 MOL      0.019264
    112 N10         2.5420   -2.9410    0.1360 n         1 MOL      0.077540
    113 C35         3.8290   -3.2280   -0.5800 c3        1 MOL     -0.027766
    114 C36         5.1150   -2.7180    0.1380 c         1 MOL      0.359164
    115 O17         4.9990   -1.9440    1.1330 o         1 MOL     -0.412539
    116 C37         3.6990   -2.5940   -1.9480 c3        1 MOL      0.203655
    117 C38         2.3730   -2.9240   -2.6570 c3        1 MOL     -0.327827
    118 O18         3.7540   -1.1820   -1.7660 oh        1 MOL     -0.541119
    119 H53         2.1660   -2.0420   -0.1490 hn        1 MOL     -0.044773
    120 H54         3.7830   -4.3140   -0.6030 h1        1 MOL      0.042725
    121 H55         4.4310   -3.0310   -2.6140 h1        1 MOL      0.042338
    122 H56         2.8770   -0.7980   -1.6670 ho        1 MOL      0.359577
    123 H57         1.7060   -2.0810   -2.5200 hc        1 MOL      0.091743
    124 H58         2.5400   -2.8660   -3.7400 hc        1 MOL      0.091743
    125 H59         1.9280   -3.8770   -2.3800 hc        1 MOL      0.091743
    126 N11         6.2970   -3.1310   -0.2680 n         1 MOL     -0.261255
    127 C39         7.5060   -2.4910    0.1260 c3        1 MOL     -0.130500
    128 C40         7.5930   -0.9710   -0.1460 c         1 MOL      0.448638
    129 O19         8.0760   -0.2710    0.7320 o         1 MOL     -0.500595
    130 C41         8.7660   -3.0440   -0.5160 c3        1 MOL      0.158024
    131 C42         9.1650   -4.3670    0.1880 c3        1 MOL     -0.277097
    132 O20         8.4430   -3.2840   -1.9200 oh        1 MOL     -0.631361
    133 H60         6.3570   -3.7950   -1.0270 hn        1 MOL      0.263822
    134 H61         7.6460   -2.5960    1.2070 h1        1 MOL      0.143395
    135 H62         9.6110   -2.3410   -0.5300 h1        1 MOL      0.104725
    136 H63         9.0320   -3.9560   -2.2680 ho        1 MOL      0.422204
    137 H64         8.3980   -5.1100    0.0050 hc        1 MOL      0.088165
    138 H65        10.0910   -4.7530   -0.2290 hc        1 MOL      0.088165
    139 H66         9.3670   -4.3140    1.2660 hc        1 MOL      0.088165
    140 N12         7.0570   -0.5060   -1.2750 n         1 MOL     -0.303563
    141 C43         6.9020    0.9410   -1.5120 c3        1 MOL     -0.064777
    142 C44         6.0840    1.6300   -0.4160 c         1 MOL      0.320372
    143 O21         6.4030    2.7370   -0.0160 o         1 MOL     -0.556754
    144 C45         6.2310    1.0980   -2.9130 c3        1 MOL      0.012588
    145 C46         6.3470    2.5310   -3.4930 c3        1 MOL      0.009238
    146 C47         5.3150    2.6530   -4.6830 c3        1 MOL     -0.060134
    147 C48         5.4150    3.9760   -5.5320 c3        1 MOL      0.012262
    148 N13         5.3910    5.1540   -4.6390 n4        1 MOL     -0.397753
    149 H67         6.6870   -1.0920   -1.9910 hn        1 MOL      0.228361
    150 H68         7.9100    1.3600   -1.5390 h1        1 MOL      0.114995
    151 H69         5.1840    0.8920   -2.6970 hc        1 MOL      0.019502
    152 H70         6.7040    0.4450   -3.6410 hc        1 MOL      0.019502
    153 H71         7.4010    2.6840   -3.6790 hc        1 MOL     -0.001141
    154 H72         5.9860    3.2640   -2.7610 hc        1 MOL     -0.001141
    155 H73         4.3030    2.6380   -4.2800 hc        1 MOL      0.055475
    156 H74         5.4100    1.8020   -5.3530 hc        1 MOL      0.055475
    157 H75         4.6500    3.9200   -6.3040 hx        1 MOL      0.099852
    158 H76         6.3310    3.8910   -6.1220 hx        1 MOL      0.099852
    159 H77         5.4040    6.0220   -5.1440 hn        1 MOL      0.344527
    160 H78         4.5920    5.1000   -4.0300 hn        1 MOL      0.344527
    161 H79         6.1760    5.1740   -4.0030 hn        1 MOL      0.344527
    162 N14         5.0870    1.0000    0.0910 n         1 MOL      0.044165
    163 C49         4.1610    1.4710    1.0950 c3        1 MOL     -0.101897
    164 C50         4.6300    1.3200    2.5250 c         1 MOL      0.457019
    165 O22         4.1610    2.0590    3.3710 o         1 MOL     -0.553526
    166 C51         2.8230    0.8400    0.8030 c3        1 MOL      0.077490
    167 C52         2.0900    1.4200   -0.4110 c3        1 MOL     -0.480429
    168 C53         0.7190    0.7450   -0.6660 c         1 MOL      0.846357
    169 O23         0.6110   -0.4990   -0.6640 o         1 MOL     -0.751110
    170 O24        -0.2560    1.4840   -0.7380 o         1 MOL     -0.751110
    171 H80         4.7070    0.2120   -0.4130 hn        1 MOL      0.254759
    172 H81         4.0820    2.5510    0.9700 h1        1 MOL      0.079066
    173 H82         2.1180    0.8220    1.6230 hc        1 MOL      0.063330
    174 H83         2.9620   -0.1950    0.4980 hc        1 MOL      0.063330
    175 H84         2.6040    1.3020   -1.3640 hc        1 MOL      0.078929
    176 H85         1.9150    2.4690   -0.2060 hc        1 MOL      0.078929
    177 N15         5.6370    0.5150    2.7270 n         1 MOL     -0.058377
    178 C54         6.5220    0.7000    3.9000 c3        1 MOL     -0.381515
    179 H86         5.9550    0.5240    4.8140 h1        1 MOL      0.135445
    180 H87         7.3500   -0.0070    3.8450 h1        1 MOL      0.135445
    181 H88         6.9120    1.7180    3.9050 h1        1 MOL      0.135445
    182 H89         5.7920   -0.2370    2.0750 hn        1 MOL      0.119100
    183 Ca1        -1.7830   -0.9500   -1.4750 Ca        1 MOL      1.768334
    184 O25        -0.6400   -3.2610   -2.0780 oh        1 MOL     -0.829758
    185 H90        -1.1060   -4.0970   -2.0350 ho        1 MOL      0.389257
    186 H91         0.0050   -3.3870   -2.7730 ho        1 MOL      0.389257
    187 O26        -0.5140   -0.6270   -3.9010 oh        1 MOL     -0.829758
    188 H92        -0.0580   -0.9640   -4.6690 ho        1 MOL      0.389257
    189 H93        -0.6980    0.2890   -4.1160 ho        1 MOL      0.389257
@<TRIPOS>BOND
     1    1    2 1   
     2    1    4 1   
     3    1    5 1   
     4    1    6 1   
     5    2    3 2   
     6    2    7 1   
     7    7    8 1   
     8    7   15 1   
     9    8    9 1   
    10    8   11 1   
    11    8   16 1   
    12    9   10 2   
    13    9   19 1   
    14   11   12 1   
    15   11   17 1   
    16   11   18 1   
    17   12   13 1   
    18   12   14 1   
    19   19   20 1   
    20   19   28 1   
    21   20   21 1   
    22   20   23 1   
    23   20   29 1   
    24   21   22 2   
    25   21   41 1   
    26   23   24 1   
    27   23   30 1   
    28   23   31 1   
    29   24   25 1   
    30   24   32 1   
    31   24   33 1   
    32   25   26 1   
    33   25   34 1   
    34   25   35 1   
    35   26   27 1   
    36   26   36 1   
    37   26   37 1   
    38   27   38 1   
    39   27   39 1   
    40   27   40 1   
    41   41   42 1   
    42   41   49 1   
    43   42   43 1   
    44   42   45 1   
    45   42   50 1   
    46   43   44 2   
    47   43   53 1   
    48   45   46 1   
    49   45   51 1   
    50   45   52 1   
    51   46   47 1   
    52   46   48 1   
    53   53   54 1   
    54   53   57 1   
    55   54   55 1   
    56   54   58 1   
    57   54   59 1   
    58   55   56 2   
    59   55   60 1   
    60   60   61 1   
    61   60   68 1   
    62   61   62 1   
    63   61   64 1   
    64   61   69 1   
    65   62   63 2   
    66   62   72 1   
    67   64   65 1   
    68   64   70 1   
    69   64   71 1   
    70   65   66 1   
    71   65   67 1   
    72   72   73 1   
    73   72   76 1   
    74   73   74 1   
    75   73   77 1   
    76   73   78 1   
    77   74   75 2   
    78   74   79 1   
    79   79   80 1   
    80   79   86 1   
    81   80   81 1   
    82   80   83 1   
    83   80   87 1   
    84   81   82 2   
    85   81   93 1   
    86   83   84 1   
    87   83   85 1   
    88   83   88 1   
    89   84   90 1   
    90   84   91 1   
    91   84   92 1   
    92   85   89 1   
    93   93   94 1   
    94   93  101 1   
    95   94   95 1   
    96   94   97 1   
    97   94  102 1   
    98   95   96 2   
    99   95  112 1   
   100   97   98 1   
   101   97   99 1   
   102   97  103 1   
   103   98  100 1   
   104   98  104 1   
   105   98  105 1   
   106   99  106 1   
   107   99  107 1   
   108   99  108 1   
   109  100  109 1   
   110  100  110 1   
   111  100  111 1   
   112  112  113 1   
   113  112  119 1   
   114  113  114 1   
   115  113  116 1   
   116  113  120 1   
   117  114  115 2   
   118  114  126 1   
   119  116  117 1   
   120  116  118 1   
   121  116  121 1   
   122  117  123 1   
   123  117  124 1   
   124  117  125 1   
   125  118  122 1   
   126  126  127 1   
   127  126  133 1   
   128  127  128 1   
   129  127  130 1   
   130  127  134 1   
   131  128  129 2   
   132  128  140 1   
   133  130  131 1   
   134  130  132 1   
   135  130  135 1   
   136  131  137 1   
   137  131  138 1   
   138  131  139 1   
   139  132  136 1   
   140  140  141 1   
   141  140  149 1   
   142  141  142 1   
   143  141  144 1   
   144  141  150 1   
   145  142  143 2   
   146  142  162 1   
   147  144  145 1   
   148  144  151 1   
   149  144  152 1   
   150  145  146 1   
   151  145  153 1   
   152  145  154 1   
   153  146  147 1   
   154  146  155 1   
   155  146  156 1   
   156  147  148 1   
   157  147  157 1   
   158  147  158 1   
   159  148  159 1   
   160  148  160 1   
   161  148  161 1   
   162  162  163 1   
   163  162  171 1   
   164  163  164 1   
   165  163  166 1   
   166  163  172 1   
   167  164  165 2   
   168  164  177 1   
   169  166  167 1   
   170  166  173 1   
   171  166  174 1   
   172  167  168 1   
   173  167  175 1   
   174  167  176 1   
   175  168  169 1   
   176  168  170 1   
   177  177  178 1   
   178  177  182 1   
   179  178  179 1   
   180  178  180 1   
   181  178  181 1   
   182  184  185 1   
   183  184  186 1   
   184  187  188 1   
   185  187  189 1   
@<TRIPOS>SUBSTRUCTURE
     1 MOL         1 TEMP              0 ****  ****    0 ROOT
