@<TRIPOS>MOLECULE
MOL
  175   173     1     0     0
SMALL
resp


@<TRIPOS>ATOM
      1 C1          0.6270    4.0550    5.3750 c3        1 MOL     -0.371853
      2 C2         -0.0840    4.1750    4.0370 c         1 MOL      0.690594
      3 O1          0.5300    4.3510    2.9910 o         1 MOL     -0.556210
      4 H1         -0.0980    4.1580    6.1820 hc        1 MOL      0.095459
      5 H2          1.1110    3.0810    5.4440 hc        1 MOL      0.095459
      6 H3          1.3780    4.8410    5.4610 hc        1 MOL      0.095459
      7 N1         -1.4020    4.0380    3.9120 n         1 MOL     -0.663151
      8 C3         -2.1730    3.7570    2.6620 c3        1 MOL      0.330788
      9 C4         -2.2150    4.9850    1.7890 c         1 MOL      0.697139
     10 O2         -2.1930    6.1010    2.2700 o         1 MOL     -0.580445
     11 C5         -3.5410    3.1590    2.9990 c3        1 MOL     -0.418374
     12 C6         -4.0800    2.1890    1.9350 c         1 MOL      0.909997
     13 O3         -5.1240    1.5640    2.1840 o         1 MOL     -0.721068
     14 O4         -3.4730    1.9340    0.8490 o         1 MOL     -0.721068
     15 H4         -1.8830    3.9570    4.8010 hn        1 MOL      0.303960
     16 H5         -1.5920    2.9690    2.1730 h1        1 MOL      0.029374
     17 H6         -4.1660    4.0540    2.9980 hc        1 MOL      0.072122
     18 H7         -3.4360    2.6280    3.9430 hc        1 MOL      0.072122
     19 N2         -2.3790    4.7150    0.4480 n         1 MOL     -0.802529
     20 C7         -2.3830    5.6460   -0.6730 c3        1 MOL      0.363468
     21 C8         -3.1760    5.0710   -1.9450 c         1 MOL      0.422476
     22 O5         -3.1460    5.6760   -2.9930 o         1 MOL     -0.530464
     23 C9         -0.9040    6.0290   -0.8920 c3        1 MOL     -0.419701
     24 H8         -2.4520    3.7170    0.3060 hn        1 MOL      0.447033
     25 H9         -3.0070    6.5150   -0.4740 h1        1 MOL      0.000171
     26 H10        -0.8260    6.7980   -1.6590 hc        1 MOL      0.114211
     27 H11        -0.4880    6.2480    0.0830 hc        1 MOL      0.114211
     28 H12        -0.4890    5.0980   -1.2810 hc        1 MOL      0.114211
     29 N3         -3.7800    3.8550   -1.8250 n         1 MOL     -0.337289
     30 C10        -4.6400    3.2640   -2.9200 c3        1 MOL      0.235339
     31 C11        -6.0010    2.7170   -2.4120 c         1 MOL      0.304622
     32 O6         -6.9440    2.8090   -3.1360 o         1 MOL     -0.533792
     33 C12        -3.9120    2.2690   -3.7960 c3        1 MOL     -0.115714
     34 C13        -3.2550    1.1230   -2.9510 c         1 MOL      0.683394
     35 O7         -2.0870    0.8200   -3.2040 o         1 MOL     -0.704514
     36 O8         -3.8520    0.6770   -1.9810 o         1 MOL     -0.704514
     37 H13        -3.7470    3.3880   -0.9260 hn        1 MOL      0.118808
     38 H14        -4.9260    4.0890   -3.5760 h1        1 MOL      0.016295
     39 H15        -3.1330    2.7770   -4.3620 hc        1 MOL      0.026404
     40 H16        -4.6150    1.8930   -4.5320 hc        1 MOL      0.026404
     41 N4         -6.0280    2.1690   -1.2300 n         1 MOL     -0.049556
     42 C14        -7.1680    1.4590   -0.5740 c3        1 MOL     -0.405563
     43 C15        -7.2390   -0.0710   -0.8690 c         1 MOL      0.623703
     44 O9         -8.2480   -0.7410   -0.6030 o         1 MOL     -0.655230
     45 H17        -5.2040    2.3480   -0.6710 hn        1 MOL      0.094541
     46 H18        -8.0880    1.8420   -0.9960 h1        1 MOL      0.163456
     47 H19        -7.0670    1.6520    0.4910 h1        1 MOL      0.163456
     48 N5         -6.2390   -0.7150   -1.3880 n         1 MOL     -0.240152
     49 C16        -6.3980   -2.0940   -1.9580 c3        1 MOL     -0.085633
     50 C17        -6.3090   -3.2730   -1.0020 c         1 MOL      0.550189
     51 O10        -6.3830   -4.3430   -1.4170 o         1 MOL     -0.538497
     52 C18        -5.3090   -2.1620   -3.0620 c3        1 MOL     -0.069155
     53 C19        -3.8250   -2.3980   -2.5300 c         1 MOL      0.465538
     54 N6         -2.8270   -2.7790   -3.2770 n         1 MOL     -0.633983
     55 O11        -3.5820   -2.3120   -1.3270 o         1 MOL     -0.232952
     56 H20        -5.4180   -0.1900   -1.6360 hn        1 MOL      0.219093
     57 H21        -7.3820   -2.1200   -2.4120 h1        1 MOL      0.102451
     58 H22        -5.2680   -1.2960   -3.7220 hc        1 MOL      0.022604
     59 H23        -5.6010   -3.0070   -3.6840 hc        1 MOL      0.022604
     60 H24        -2.8560   -2.7720   -4.2910 hn        1 MOL      0.322706
     61 H25        -1.8980   -2.7820   -2.8830 hn        1 MOL      0.322706
     62 N7         -6.2000   -2.9100    0.2860 n         1 MOL     -0.206958
     63 C20        -6.2870   -3.8960    1.3930 c3        1 MOL     -0.370985
     64 C21        -4.9780   -4.3240    2.0090 c         1 MOL      0.612695
     65 O12        -4.9640   -5.1000    2.9270 o         1 MOL     -0.583783
     66 H26        -6.0830   -1.9120    0.4180 hn        1 MOL      0.236271
     67 H27        -6.8290   -4.7750    1.0380 h1        1 MOL      0.149424
     68 H28        -6.7290   -3.3730    2.2390 h1        1 MOL      0.149424
     69 N8         -3.8470   -4.0170    1.3010 n         1 MOL     -0.223727
     70 C22        -2.5200   -4.5060    1.5900 c3        1 MOL     -0.241682
     71 C23        -1.5630   -3.3810    1.7170 c         1 MOL      0.768141
     72 O13        -1.8660   -2.2630    1.2170 o         1 MOL     -0.638098
     73 C24        -2.0800   -5.4390    0.5190 c3        1 MOL      0.590184
     74 C25        -2.6960   -6.8880    0.6280 c3        1 MOL     -0.457257
     75 O14        -2.4270   -4.9190   -0.7790 oh        1 MOL     -0.577842
     76 H29        -3.9930   -3.3540    0.5470 hn        1 MOL      0.097149
     77 H30        -2.5320   -5.0300    2.5440 h1        1 MOL      0.098333
     78 H31        -1.0090   -5.6170    0.5780 h1        1 MOL     -0.057453
     79 H32        -2.5360   -3.9680   -0.6690 ho        1 MOL      0.236992
     80 H33        -3.7310   -6.6920    0.9170 hc        1 MOL      0.107010
     81 H34        -2.7090   -7.3660   -0.3520 hc        1 MOL      0.107010
     82 H35        -2.3210   -7.5420    1.4200 hc        1 MOL      0.107010
     83 N9         -0.4380   -3.6010    2.3660 n         1 MOL     -0.754538
     84 C26         0.6820   -2.7390    2.0760 c3        1 MOL      0.153205
     85 C27         1.4060   -3.1080    0.7240 c         1 MOL      0.393388
     86 O15         1.7410   -4.2220    0.4530 o         1 MOL     -0.547087
     87 C28         1.6850   -2.6560    3.2590 c3        1 MOL      0.151382
     88 C29         0.9490   -2.6130    4.6620 c3        1 MOL      0.105129
     89 C30         2.7450   -1.4870    3.1640 c3        1 MOL     -0.395507
     90 C31         1.7780   -2.2570    5.8760 c3        1 MOL     -0.177692
     91 H36        -0.1730   -4.5390    2.6280 hn        1 MOL      0.343424
     92 H37         0.2270   -1.7650    1.9030 h1        1 MOL      0.080047
     93 H38         2.2540   -3.5870    3.2590 hc        1 MOL     -0.017488
     94 H39         0.5780   -3.6310    4.8560 hc        1 MOL     -0.019209
     95 H40         0.1690   -1.8570    4.5630 hc        1 MOL     -0.019209
     96 H41         3.5150   -1.3780    3.9260 hc        1 MOL      0.073547
     97 H42         3.2620   -1.4190    2.2120 hc        1 MOL      0.073547
     98 H43         2.1540   -0.5730    3.2320 hc        1 MOL      0.073547
     99 H44         1.0820   -2.2850    6.7170 hc        1 MOL      0.037416
    100 H45         2.6060   -2.9490    6.0410 hc        1 MOL      0.037416
    101 H46         2.3230   -1.3070    5.8800 hc        1 MOL      0.037416
    102 N10         1.7660   -2.0520   -0.0230 n         1 MOL     -0.121141
    103 C32         2.6030   -1.9200   -1.1560 c3        1 MOL      0.158552
    104 C33         3.9710   -1.3720   -0.9380 c         1 MOL      0.281163
    105 O16         4.2450   -0.7380    0.0640 o         1 MOL     -0.234235
    106 C34         1.8360   -1.2530   -2.2960 c3        1 MOL     -0.277053
    107 C35         0.3760   -1.8080   -2.5150 c         1 MOL      0.683175
    108 O17         0.1870   -2.4390   -3.5730 o         1 MOL     -0.658674
    109 O18        -0.4840   -1.6430   -1.6300 o         1 MOL     -0.658674
    110 H47         1.4940   -1.1080    0.2220 hn        1 MOL      0.173837
    111 H48         2.8250   -2.9310   -1.5000 h1        1 MOL      0.038964
    112 H49         2.4080   -1.3680   -3.2260 hc        1 MOL      0.058103
    113 H50         1.8200   -0.1650   -2.2370 hc        1 MOL      0.058103
    114 N11         4.9760   -1.6790   -1.7690 n         1 MOL     -0.654836
    115 C36         6.4100   -1.3560   -1.4530 c3        1 MOL      0.522087
    116 C37         6.7330    0.1580   -1.2590 c         1 MOL      0.305597
    117 O19         7.4370    0.5260   -0.2860 o         1 MOL     -0.498590
    118 C38         7.4430   -1.9720   -2.4310 c3        1 MOL     -0.286243
    119 C39         8.8420   -2.1430   -1.9370 ca        1 MOL      0.182323
    120 C40         9.9000   -1.6810   -2.7060 ca        1 MOL     -0.222448
    121 C41         9.1200   -2.6050   -0.6490 ca        1 MOL     -0.222448
    122 C42        11.2520   -1.7060   -2.1950 ca        1 MOL     -0.071933
    123 C43        10.4570   -2.7040   -0.1570 ca        1 MOL     -0.071933
    124 C44        11.5170   -2.1880   -0.9250 ca        1 MOL     -0.152963
    125 H51         4.8150   -2.1370   -2.6550 hn        1 MOL      0.331963
    126 H52         6.5940   -1.8300   -0.4870 h1        1 MOL      0.027648
    127 H53         7.4550   -1.4090   -3.3670 hc        1 MOL      0.058926
    128 H54         7.0720   -2.9890   -2.5710 hc        1 MOL      0.058926
    129 H55         9.6970   -1.2690   -3.6860 ha        1 MOL      0.126414
    130 H56         8.3560   -2.9670    0.0290 ha        1 MOL      0.126414
    131 H57        12.0280   -1.3300   -2.8420 ha        1 MOL      0.102864
    132 H58        10.6590   -3.1470    0.8020 ha        1 MOL      0.102864
    133 H59        12.5260   -2.0660   -0.5580 ha        1 MOL      0.112683
    134 N12         6.0700    1.1060   -1.9820 n         1 MOL     -0.134250
    135 C45         6.3060    2.5050   -1.6880 c3        1 MOL      0.102210
    136 C46         5.7010    2.9200   -0.2980 c         1 MOL      0.267081
    137 O20         6.2720    3.6270    0.5240 o         1 MOL     -0.506232
    138 C47         5.6830    3.2880   -2.8570 c3        1 MOL     -0.029368
    139 C48         5.5360    2.3090   -4.0520 c3        1 MOL      0.008305
    140 C49         5.2020    1.0700   -3.2020 c3        1 MOL     -0.124837
    141 H60         7.3850    2.6360   -1.6950 h1        1 MOL      0.053787
    142 H61         4.6650    3.5910   -2.6290 hc        1 MOL      0.016764
    143 H62         6.3100    4.1600   -3.0760 hc        1 MOL      0.016764
    144 H63         4.8100    2.4370   -4.8520 hc        1 MOL      0.023681
    145 H64         6.5120    2.2510   -4.5460 hc        1 MOL      0.023681
    146 H65         4.1590    1.1550   -2.8930 h1        1 MOL      0.075820
    147 H66         5.3930    0.1530   -3.7590 h1        1 MOL      0.075820
    148 N13         4.6250    2.2660    0.1200 n         1 MOL     -0.055689
    149 C50         4.0220    2.3930    1.4710 c3        1 MOL     -0.188683
    150 C51         4.9470    1.7050    2.5630 c         1 MOL      0.474377
    151 O21         5.0470    2.2170    3.6880 o         1 MOL     -0.573546
    152 C52         2.5030    1.8830    1.3950 c3        1 MOL      0.047556
    153 C53         1.6800    2.3850    0.2060 c3        1 MOL     -0.358091
    154 C54         0.3640    1.5480    0.0960 c         1 MOL      0.585207
    155 O22        -0.6610    2.1010   -0.3470 o         1 MOL     -0.622720
    156 O23         0.3540    0.3460    0.5210 o         1 MOL     -0.622720
    157 H67         4.2560    1.5380   -0.4700 hn        1 MOL      0.140208
    158 H68         3.9240    3.4540    1.6850 h1        1 MOL      0.127214
    159 H69         1.9500    2.0840    2.3180 hc        1 MOL      0.030239
    160 H70         2.6680    0.8090    1.4500 hc        1 MOL      0.030239
    161 H71         2.2480    2.2000   -0.7080 hc        1 MOL      0.124953
    162 H72         1.3980    3.4180    0.3800 hc        1 MOL      0.124953
    163 N14         5.5940    0.6060    2.2290 n         1 MOL      0.111404
    164 C55         6.5750   -0.0060    3.1060 c3        1 MOL     -0.336976
    165 H73         6.2040    0.0080    4.1310 h1        1 MOL      0.104248
    166 H74         6.7480   -1.0370    2.7960 h1        1 MOL      0.104248
    167 H75         7.5110    0.5510    3.0510 h1        1 MOL      0.104248
    168 H76         5.4470    0.0940    1.3690 hn        1 MOL     -0.003183
    169 Ca1        -2.0760   -0.0480   -0.3830 Ca        1 MOL      1.529786
    170 O24        -1.5850    0.1730    2.6280 oh        1 MOL     -0.783013
    171 H77        -1.3950    0.5380    3.4920 ho        1 MOL      0.387084
    172 H78        -0.7250    0.0680    2.2210 ho        1 MOL      0.387084
    173 O25        -4.0520   -0.7100    1.3680 oh        1 MOL     -0.783013
    174 H79        -4.5950    0.0440    1.6150 ho        1 MOL      0.387084
    175 H80        -3.3630   -0.7360    2.0280 ho        1 MOL      0.387084
@<TRIPOS>BOND
     1    1    2 1   
     2    1    4 1   
     3    1    5 1   
     4    1    6 1   
     5    2    3 2   
     6    2    7 1   
     7    7    8 1   
     8    7   15 1   
     9    8    9 1   
    10    8   11 1   
    11    8   16 1   
    12    9   10 2   
    13    9   19 1   
    14   11   12 1   
    15   11   17 1   
    16   11   18 1   
    17   12   13 1   
    18   12   14 1   
    19   19   20 1   
    20   19   24 1   
    21   20   21 1   
    22   20   23 1   
    23   20   25 1   
    24   21   22 2   
    25   21   29 1   
    26   23   26 1   
    27   23   27 1   
    28   23   28 1   
    29   29   30 1   
    30   29   37 1   
    31   30   31 1   
    32   30   33 1   
    33   30   38 1   
    34   31   32 2   
    35   31   41 1   
    36   33   34 1   
    37   33   39 1   
    38   33   40 1   
    39   34   35 1   
    40   34   36 1   
    41   41   42 1   
    42   41   45 1   
    43   42   43 1   
    44   42   46 1   
    45   42   47 1   
    46   43   44 2   
    47   43   48 1   
    48   48   49 1   
    49   48   56 1   
    50   49   50 1   
    51   49   52 1   
    52   49   57 1   
    53   50   51 2   
    54   50   62 1   
    55   52   53 1   
    56   52   58 1   
    57   52   59 1   
    58   53   54 1   
    59   53   55 2   
    60   54   60 1   
    61   54   61 1   
    62   62   63 1   
    63   62   66 1   
    64   63   64 1   
    65   63   67 1   
    66   63   68 1   
    67   64   65 2   
    68   64   69 1   
    69   69   70 1   
    70   69   76 1   
    71   70   71 1   
    72   70   73 1   
    73   70   77 1   
    74   71   72 2   
    75   71   83 1   
    76   73   74 1   
    77   73   75 1   
    78   73   78 1   
    79   74   80 1   
    80   74   81 1   
    81   74   82 1   
    82   75   79 1   
    83   83   84 1   
    84   83   91 1   
    85   84   85 1   
    86   84   87 1   
    87   84   92 1   
    88   85   86 2   
    89   85  102 1   
    90   87   88 1   
    91   87   89 1   
    92   87   93 1   
    93   88   90 1   
    94   88   94 1   
    95   88   95 1   
    96   89   96 1   
    97   89   97 1   
    98   89   98 1   
    99   90   99 1   
   100   90  100 1   
   101   90  101 1   
   102  102  103 1   
   103  102  110 1   
   104  103  104 1   
   105  103  106 1   
   106  103  111 1   
   107  104  105 2   
   108  104  114 1   
   109  106  107 1   
   110  106  112 1   
   111  106  113 1   
   112  107  108 1   
   113  107  109 1   
   114  114  115 1   
   115  114  125 1   
   116  115  116 1   
   117  115  118 1   
   118  115  126 1   
   119  116  117 2   
   120  116  134 1   
   121  118  119 1   
   122  118  127 1   
   123  118  128 1   
   124  119  120 ar  
   125  119  121 ar  
   126  120  122 ar  
   127  120  129 1   
   128  121  123 ar  
   129  121  130 1   
   130  122  124 ar  
   131  122  131 1   
   132  123  124 ar  
   133  123  132 1   
   134  124  133 1   
   135  134  135 1   
   136  134  140 1   
   137  135  136 1   
   138  135  138 1   
   139  135  141 1   
   140  136  137 2   
   141  136  148 1   
   142  138  139 1   
   143  138  142 1   
   144  138  143 1   
   145  139  140 1   
   146  139  144 1   
   147  139  145 1   
   148  140  146 1   
   149  140  147 1   
   150  148  149 1   
   151  148  157 1   
   152  149  150 1   
   153  149  152 1   
   154  149  158 1   
   155  150  151 2   
   156  150  163 1   
   157  152  153 1   
   158  152  159 1   
   159  152  160 1   
   160  153  154 1   
   161  153  161 1   
   162  153  162 1   
   163  154  155 1   
   164  154  156 1   
   165  163  164 1   
   166  163  168 1   
   167  164  165 1   
   168  164  166 1   
   169  164  167 1   
   170  170  171 1   
   171  170  172 1   
   172  173  174 1   
   173  173  175 1   
@<TRIPOS>SUBSTRUCTURE
     1 MOL         1 TEMP              0 ****  ****    0 ROOT
