@<TRIPOS>MOLECULE
MOL
  179   176     1     0     0
SMALL
resp


@<TRIPOS>ATOM
      1 C1          2.3070    3.2720    4.2900 c3        1 MOL     -0.444199
      2 C2          1.4300    3.1450    3.0030 c         1 MOL      0.647045
      3 O1          1.9770    3.1080    1.8910 o         1 MOL     -0.516965
      4 H1          2.9740    4.1270    4.1910 hc        1 MOL      0.114867
      5 H2          1.6620    3.4120    5.1570 hc        1 MOL      0.114867
      6 H3          2.8970    2.3640    4.4180 hc        1 MOL      0.114867
      7 N1          0.1400    3.0010    3.2340 n         1 MOL     -0.619394
      8 C3         -0.7600    2.7500    2.1290 c3        1 MOL      0.059340
      9 C4         -1.1810    4.0300    1.3730 c         1 MOL      0.636603
     10 O2         -2.2780    4.5510    1.5450 o         1 MOL     -0.515332
     11 C5         -1.9280    1.9300    2.5990 c3        1 MOL      0.167200
     12 C6         -2.8260    1.4220    1.4820 c         1 MOL      0.649533
     13 O3         -3.8390    0.8030    1.7660 o         1 MOL     -0.670673
     14 O4         -2.4650    1.5470    0.3160 o         1 MOL     -0.670673
     15 H4         -0.1970    2.8520    4.1780 hn        1 MOL      0.374664
     16 H5         -0.1830    2.1260    1.4430 h1        1 MOL     -0.038829
     17 H6         -2.4930    2.3980    3.4090 hc        1 MOL     -0.046864
     18 H7         -1.5070    1.0340    3.0630 hc        1 MOL     -0.046864
     19 N2         -0.1580    4.6180    0.7600 n         1 MOL     -0.433837
     20 C7         -0.2250    5.9730    0.2240 c3        1 MOL     -0.051231
     21 C8         -1.2450    6.1600   -0.8880 c         1 MOL      0.470703
     22 O5         -1.6880    7.2510   -1.2460 o         1 MOL     -0.552810
     23 C9          1.1520    6.3810   -0.2510 c3        1 MOL     -0.204317
     24 C10         2.0810    6.6310    0.8900 c3        1 MOL      0.306950
     25 C11         3.4140    7.0740    0.2800 c3        1 MOL     -0.120311
     26 C12         4.5270    6.9630    1.2790 c3        1 MOL      0.179406
     27 N3          4.2870    7.6480    2.5020 n4        1 MOL     -0.433783
     28 H8          0.7650    4.2160    0.8110 hn        1 MOL      0.306194
     29 H9         -0.5410    6.6870    0.9820 h1        1 MOL      0.089725
     30 H10         1.0450    7.2890   -0.8490 hc        1 MOL      0.094708
     31 H11         1.6370    5.6700   -0.9140 hc        1 MOL      0.094708
     32 H12         2.2260    5.7660    1.5280 hc        1 MOL     -0.084076
     33 H13         1.7260    7.4890    1.4680 hc        1 MOL     -0.084076
     34 H14         3.4380    8.1320    0.0120 hc        1 MOL      0.037933
     35 H15         3.7840    6.4740   -0.5560 hc        1 MOL      0.037933
     36 H16         5.4880    7.2430    0.8340 hx        1 MOL      0.059189
     37 H17         4.6520    5.9090    1.5210 hx        1 MOL      0.059189
     38 H18         5.1450    7.8160    3.0170 hn        1 MOL      0.335608
     39 H19         3.8410    8.5200    2.2840 hn        1 MOL      0.335608
     40 H20         3.6620    7.1460    3.1220 hn        1 MOL      0.335608
     41 N4         -1.6420    5.1040   -1.5790 n         1 MOL     -0.304468
     42 C13        -2.8160    5.0610   -2.4920 c3        1 MOL      0.187757
     43 C14        -4.0970    4.6950   -1.6790 c         1 MOL      0.426971
     44 O6         -5.1400    5.1730   -2.0830 o         1 MOL     -0.553537
     45 C15        -2.6280    4.0300   -3.6180 c3        1 MOL     -0.480177
     46 C16        -2.2390    2.6440   -2.9980 c         1 MOL      0.860092
     47 O7         -3.1120    1.7260   -2.9360 o         1 MOL     -0.749453
     48 O8         -1.0760    2.4600   -2.6420 o         1 MOL     -0.749453
     49 H21        -1.0910    4.2590   -1.5440 hn        1 MOL      0.214035
     50 H22        -2.9910    6.0520   -2.9020 h1        1 MOL      0.066753
     51 H23        -1.8280    4.2990   -4.3100 hc        1 MOL      0.126317
     52 H24        -3.5910    3.8650   -4.1070 hc        1 MOL      0.126317
     53 N5         -3.9790    3.9040   -0.6540 n         1 MOL      0.118577
     54 C17        -5.1770    3.6340    0.2200 c3        1 MOL     -0.218337
     55 C18        -6.2400    2.7370   -0.3180 c         1 MOL      0.563818
     56 O9         -7.4050    3.0470   -0.4100 o         1 MOL     -0.551558
     57 H25        -3.0520    3.6150   -0.3690 hn        1 MOL     -0.109303
     58 H26        -5.6690    4.5890    0.4010 h1        1 MOL      0.105761
     59 H27        -4.8380    3.2790    1.1960 h1        1 MOL      0.105761
     60 N6         -5.7760    1.5160   -0.6060 n         1 MOL     -0.059510
     61 C19        -6.5660    0.3610   -1.0770 c3        1 MOL     -0.054455
     62 C20        -6.8230   -0.6290    0.0680 c         1 MOL      0.413147
     63 O10        -7.7900   -1.3500   -0.0360 o         1 MOL     -0.525272
     64 C21        -6.0810   -0.2070   -2.3940 c3        1 MOL      0.072106
     65 C22        -4.8930   -1.1540   -2.1810 c         1 MOL      0.360510
     66 N7         -4.7300   -2.1470   -2.9740 n         1 MOL     -0.705499
     67 O11        -4.2180   -1.0650   -1.2080 o         1 MOL     -0.434744
     68 H28        -4.7850    1.4110   -0.4970 hn        1 MOL     -0.216727
     69 H29        -7.5640    0.7360   -1.3100 h1        1 MOL      0.077549
     70 H30        -5.8580    0.5850   -3.1130 hc        1 MOL      0.036447
     71 H31        -6.8590   -0.7510   -2.9240 hc        1 MOL      0.036447
     72 H32        -5.4070   -2.2780   -3.7130 hn        1 MOL      0.351193
     73 H33        -3.9890   -2.8040   -2.7940 hn        1 MOL      0.351193
     74 N8         -5.9920   -0.5890    1.1440 n         1 MOL     -0.141187
     75 C23        -5.9710   -1.3890    2.3220 c3        1 MOL     -0.317769
     76 C24        -4.8580   -2.4060    2.4210 c         1 MOL      0.618091
     77 O12        -4.8340   -3.0850    3.4170 o         1 MOL     -0.593566
     78 H34        -5.2390    0.0700    1.0870 hn        1 MOL      0.157328
     79 H35        -6.9390   -1.8960    2.3670 h1        1 MOL      0.131571
     80 H36        -6.0240   -0.7060    3.1690 h1        1 MOL      0.131571
     81 N9         -3.9950   -2.3930    1.4770 n         1 MOL     -0.579646
     82 C25        -2.8340   -3.3660    1.3630 c3        1 MOL      0.363346
     83 C26        -1.5090   -2.6590    1.1440 c         1 MOL      0.189550
     84 O13        -1.5520   -1.6430    0.4070 o         1 MOL     -0.604561
     85 C27        -3.1080   -4.3310    0.2380 c3        1 MOL      0.034210
     86 C28        -4.3640   -5.1650    0.4070 ca        1 MOL     -0.129766
     87 C29        -5.6760   -4.6650   -0.0660 ca        1 MOL     -0.071997
     88 C30        -4.2780   -6.3460    1.0700 ca        1 MOL     -0.071997
     89 C31        -6.7750   -5.5900   -0.0510 ca        1 MOL     -0.286324
     90 C32        -5.4060   -7.1120    1.1770 ca        1 MOL     -0.286324
     91 C33        -6.6300   -6.7930    0.5980 ca        1 MOL      0.384126
     92 O14        -7.6550   -7.6800    0.6490 oh        1 MOL     -0.471326
     93 H37        -4.0820   -1.6900    0.7610 hn        1 MOL      0.695079
     94 H38        -2.7880   -3.9030    2.3100 h1        1 MOL     -0.009158
     95 H39        -2.2600   -4.9990    0.0920 hc        1 MOL     -0.010792
     96 H40        -3.3420   -3.7630   -0.6700 hc        1 MOL     -0.010792
     97 H41        -5.7130   -3.6530   -0.4420 ha        1 MOL      0.102324
     98 H42        -3.3680   -6.6440    1.5580 ha        1 MOL      0.102324
     99 H43        -7.7140   -5.2250   -0.4450 ha        1 MOL      0.145888
    100 H44        -5.2640   -8.0690    1.6600 ha        1 MOL      0.145888
    101 H45        -7.3900   -8.5270    1.0110 ho        1 MOL      0.336201
    102 N10        -0.3820   -3.2730    1.5610 n         1 MOL     -0.207720
    103 C34         0.9740   -2.8430    1.1420 c3        1 MOL     -0.065378
    104 C35         2.0280   -3.8730    0.7420 c         1 MOL      0.403233
    105 O15         2.1930   -4.8370    1.4600 o         1 MOL     -0.509120
    106 C36         1.5650   -1.9570    2.2940 c3        1 MOL     -0.048466
    107 C37         1.8820   -2.6490    3.6290 c3        1 MOL     -0.076611
    108 C38         0.7480   -0.6140    2.3790 c3        1 MOL     -0.417284
    109 C39         2.4930   -1.6880    4.7000 c3        1 MOL     -0.094234
    110 H46        -0.4090   -4.0980    2.1340 hn        1 MOL      0.241478
    111 H47         0.8380   -2.3120    0.1950 h1        1 MOL      0.125177
    112 H48         2.5210   -1.6550    1.8690 hc        1 MOL      0.079816
    113 H49         2.4510   -3.5720    3.5070 hc        1 MOL      0.063919
    114 H50         0.8960   -2.9230    4.0050 hc        1 MOL      0.063919
    115 H51         1.3380    0.1300    2.9080 hc        1 MOL      0.160742
    116 H52         0.5330   -0.2500    1.3750 hc        1 MOL      0.160742
    117 H53        -0.2190   -0.6630    2.8800 hc        1 MOL      0.160742
    118 H54         3.4090   -1.2920    4.2620 hc        1 MOL      0.023019
    119 H55         1.7580   -0.9300    4.9890 hc        1 MOL      0.023019
    120 H56         2.6740   -2.2670    5.6040 hc        1 MOL      0.023019
    121 N11         2.7530   -3.6710   -0.3670 n         1 MOL     -0.228891
    122 C40         3.9210   -4.4690   -0.8860 c3        1 MOL     -0.107094
    123 C41         5.2860   -3.9880   -0.2840 c         1 MOL      0.497064
    124 O16         5.2860   -3.0200    0.4690 o         1 MOL     -0.408426
    125 C42         3.9070   -4.1920   -2.3910 c3        1 MOL     -0.010373
    126 O17         4.1110   -2.8380   -2.7800 oh        1 MOL     -0.567878
    127 H57         2.4230   -2.9270   -0.9600 hn        1 MOL      0.212553
    128 H58         3.7700   -5.5050   -0.5810 h1        1 MOL      0.093127
    129 H59         2.9740   -4.6030   -2.7680 h1        1 MOL      0.078211
    130 H60         4.6790   -4.7950   -2.8790 h1        1 MOL      0.078211
    131 H61         3.4060   -2.2650   -2.4580 ho        1 MOL      0.426838
    132 N12         6.4100   -4.5480   -0.7200 n         1 MOL     -0.412183
    133 C43         7.7700   -4.1400   -0.4420 c3        1 MOL      0.107826
    134 C44         7.9620   -2.7230   -0.7940 c         1 MOL      0.579487
    135 O18         8.4830   -1.9790   -0.0080 o         1 MOL     -0.544306
    136 C45         8.6020   -5.0210   -1.3510 c3        1 MOL     -0.229602
    137 H62         6.3040   -5.3790   -1.2840 hn        1 MOL      0.254887
    138 H63         7.9580   -4.2870    0.6190 h1        1 MOL      0.072785
    139 H64         8.5580   -6.0680   -1.0480 hc        1 MOL      0.070188
    140 H65         8.3310   -4.8670   -2.3870 hc        1 MOL      0.070188
    141 H66         9.6300   -4.6720   -1.2720 hc        1 MOL      0.070188
    142 N13         7.5010   -2.3460   -1.9780 n         1 MOL     -0.479591
    143 C46         7.7000   -0.9540   -2.5390 c3        1 MOL      0.093862
    144 C47         7.1700    0.1120   -1.5960 c         1 MOL      0.367103
    145 O19         7.7710    1.0920   -1.3260 o         1 MOL     -0.513193
    146 C48         7.1040   -0.9100   -3.8800 c3        1 MOL     -0.236932
    147 H67         6.9590   -3.0260   -2.4750 hn        1 MOL      0.314789
    148 H68         8.7600   -0.7720   -2.6950 h1        1 MOL      0.093423
    149 H69         7.4800   -0.0200   -4.3800 hc        1 MOL      0.067618
    150 H70         7.5400   -1.6960   -4.4980 hc        1 MOL      0.067618
    151 H71         6.0250   -1.0350   -3.9700 hc        1 MOL      0.067618
    152 N14         5.9970   -0.0970   -1.0820 n         1 MOL     -0.048082
    153 C49         5.3200    0.8090   -0.1300 c3        1 MOL     -0.099143
    154 C50         6.0860    0.8920    1.1480 c         1 MOL      0.437711
    155 O20         6.1910    1.9450    1.7600 o         1 MOL     -0.601048
    156 C51         3.8790    0.3100    0.1260 c3        1 MOL     -0.004278
    157 C52         2.9850    0.6920   -1.0180 c3        1 MOL      0.010442
    158 C53         1.8200   -0.2920   -1.2800 c         1 MOL      0.802633
    159 O21         1.9770   -1.4040   -1.8590 o         1 MOL     -0.772161
    160 O22         0.7030    0.2020   -0.9610 o         1 MOL     -0.772161
    161 H72         5.6220   -1.0200   -1.2400 hn        1 MOL      0.094143
    162 H73         5.2830    1.8120   -0.5720 h1        1 MOL      0.101879
    163 H74         3.4450    0.6740    1.0490 hc        1 MOL      0.010989
    164 H75         3.9680   -0.7810    0.2050 hc        1 MOL      0.010989
    165 H76         3.6080    0.7060   -1.9150 hc        1 MOL     -0.015635
    166 H77         2.5770    1.7010   -0.9410 hc        1 MOL     -0.015635
    167 N15         6.6150   -0.1570    1.7040 n         1 MOL      0.014843
    168 C54         7.4290   -0.2330    2.9440 c3        1 MOL     -0.295812
    169 H78         8.0380    0.6660    3.0340 h1        1 MOL      0.112875
    170 H79         6.7690   -0.3120    3.8080 h1        1 MOL      0.112875
    171 H80         8.0770   -1.1080    2.9000 h1        1 MOL      0.112875
    172 H81         6.4650   -1.0360    1.2320 hn        1 MOL      0.088126
    173 Ca1        -1.6110    0.0390   -1.6810 Ca        1 MOL      1.783717
    174 O23        -1.4590   -2.3760   -2.5790 oh        1 MOL     -0.899595
    175 H82        -0.8890   -2.2410   -3.3380 ho        1 MOL      0.436288
    176 H83        -1.4730   -3.3270   -2.4550 ho        1 MOL      0.436288
    177 O24        -0.2330   -0.4200   -3.7950 oh        1 MOL     -0.899595
    178 H84         0.6400   -0.7630   -3.6030 ho        1 MOL      0.436288
    179 H85        -0.2230   -0.2510   -4.7360 ho        1 MOL      0.436288
@<TRIPOS>BOND
     1    1    2 1   
     2    1    4 1   
     3    1    5 1   
     4    1    6 1   
     5    2    3 2   
     6    2    7 1   
     7    7    8 1   
     8    7   15 1   
     9    8    9 1   
    10    8   11 1   
    11    8   16 1   
    12    9   10 2   
    13    9   19 1   
    14   11   12 1   
    15   11   17 1   
    16   11   18 1   
    17   12   13 1   
    18   12   14 1   
    19   19   20 1   
    20   19   28 1   
    21   20   21 1   
    22   20   23 1   
    23   20   29 1   
    24   21   22 2   
    25   21   41 1   
    26   23   24 1   
    27   23   30 1   
    28   23   31 1   
    29   24   25 1   
    30   24   32 1   
    31   24   33 1   
    32   25   26 1   
    33   25   34 1   
    34   25   35 1   
    35   26   27 1   
    36   26   36 1   
    37   26   37 1   
    38   27   38 1   
    39   27   39 1   
    40   27   40 1   
    41   41   42 1   
    42   41   49 1   
    43   42   43 1   
    44   42   45 1   
    45   42   50 1   
    46   43   44 2   
    47   43   53 1   
    48   45   46 1   
    49   45   51 1   
    50   45   52 1   
    51   46   47 1   
    52   46   48 1   
    53   53   54 1   
    54   53   57 1   
    55   54   55 1   
    56   54   58 1   
    57   54   59 1   
    58   55   56 2   
    59   55   60 1   
    60   60   61 1   
    61   60   68 1   
    62   61   62 1   
    63   61   64 1   
    64   61   69 1   
    65   62   63 2   
    66   62   74 1   
    67   64   65 1   
    68   64   70 1   
    69   64   71 1   
    70   65   66 1   
    71   65   67 2   
    72   66   72 1   
    73   66   73 1   
    74   74   75 1   
    75   74   78 1   
    76   75   76 1   
    77   75   79 1   
    78   75   80 1   
    79   76   77 2   
    80   76   81 1   
    81   81   82 1   
    82   81   93 1   
    83   82   83 1   
    84   82   85 1   
    85   82   94 1   
    86   83   84 2   
    87   83  102 1   
    88   85   86 1   
    89   85   95 1   
    90   85   96 1   
    91   86   87 ar  
    92   86   88 ar  
    93   87   89 ar  
    94   87   97 1   
    95   88   90 ar  
    96   88   98 1   
    97   89   91 ar  
    98   89   99 1   
    99   90   91 ar  
   100   90  100 1   
   101   91   92 1   
   102   92  101 1   
   103  102  103 1   
   104  102  110 1   
   105  103  104 1   
   106  103  106 1   
   107  103  111 1   
   108  104  105 2   
   109  104  121 1   
   110  106  107 1   
   111  106  108 1   
   112  106  112 1   
   113  107  109 1   
   114  107  113 1   
   115  107  114 1   
   116  108  115 1   
   117  108  116 1   
   118  108  117 1   
   119  109  118 1   
   120  109  119 1   
   121  109  120 1   
   122  121  122 1   
   123  121  127 1   
   124  122  123 1   
   125  122  125 1   
   126  122  128 1   
   127  123  124 2   
   128  123  132 1   
   129  125  126 1   
   130  125  129 1   
   131  125  130 1   
   132  126  131 1   
   133  132  133 1   
   134  132  137 1   
   135  133  134 1   
   136  133  136 1   
   137  133  138 1   
   138  134  135 2   
   139  134  142 1   
   140  136  139 1   
   141  136  140 1   
   142  136  141 1   
   143  142  143 1   
   144  142  147 1   
   145  143  144 1   
   146  143  146 1   
   147  143  148 1   
   148  144  145 2   
   149  144  152 1   
   150  146  149 1   
   151  146  150 1   
   152  146  151 1   
   153  152  153 1   
   154  152  161 1   
   155  153  154 1   
   156  153  156 1   
   157  153  162 1   
   158  154  155 2   
   159  154  167 1   
   160  156  157 1   
   161  156  163 1   
   162  156  164 1   
   163  157  158 1   
   164  157  165 1   
   165  157  166 1   
   166  158  159 1   
   167  158  160 1   
   168  167  168 1   
   169  167  172 1   
   170  168  169 1   
   171  168  170 1   
   172  168  171 1   
   173  174  175 1   
   174  174  176 1   
   175  177  178 1   
   176  177  179 1   
@<TRIPOS>SUBSTRUCTURE
     1 MOL         1 TEMP              0 ****  ****    0 ROOT
