@<TRIPOS>MOLECULE
MOL
  172   171     1     0     0
SMALL
resp


@<TRIPOS>ATOM
      1 C1          0.7200    3.5930    5.6000 c3        1 MOL     -0.274904
      2 C2          0.0940    3.6740    4.2100 c         1 MOL      0.702451
      3 O1          0.7830    3.8260    3.2120 o         1 MOL     -0.544371
      4 H1          1.8040    3.6810    5.5160 hc        1 MOL      0.067858
      5 H2          0.3370    4.4050    6.2200 hc        1 MOL      0.067858
      6 H3          0.4680    2.6360    6.0570 hc        1 MOL      0.067858
      7 N1         -1.2260    3.5420    4.0280 n         1 MOL     -0.699120
      8 C3         -1.9090    3.4260    2.7000 c3        1 MOL      0.354596
      9 C4         -2.0180    4.7660    1.8980 c         1 MOL      0.570194
     10 O2         -2.0140    5.8790    2.3750 o         1 MOL     -0.572860
     11 C5         -3.2800    2.7520    3.0130 c3        1 MOL     -0.524805
     12 C6         -3.9290    2.1780    1.7400 c         1 MOL      0.731219
     13 O3         -5.1890    1.9850    1.7550 o         1 MOL     -0.688575
     14 O4         -3.4040    2.0880    0.6480 o         1 MOL     -0.688575
     15 H4         -1.7830    3.4050    4.8650 hn        1 MOL      0.320056
     16 H5         -1.3950    2.7030    2.0680 h1        1 MOL      0.074335
     17 H6         -3.9560    3.5540    3.3140 hc        1 MOL      0.127595
     18 H7         -3.1720    1.9160    3.6950 hc        1 MOL      0.127595
     19 N2         -2.1240    4.5750    0.5750 n         1 MOL     -0.551863
     20 C7         -2.3230    5.6270   -0.4290 c3        1 MOL      0.374621
     21 C8         -3.3930    5.1840   -1.4160 c         1 MOL      0.408786
     22 O5         -3.7030    5.9740   -2.3350 o         1 MOL     -0.569156
     23 C9         -0.9530    5.7950   -1.1400 c3        1 MOL     -0.455034
     24 H8         -2.1470    3.6110    0.2580 hn        1 MOL      0.258309
     25 H9         -2.6630    6.5770   -0.0240 h1        1 MOL      0.014095
     26 H10        -0.8070    4.8880   -1.7220 hc        1 MOL      0.124701
     27 H11        -0.9330    6.6190   -1.8590 hc        1 MOL      0.124701
     28 H12        -0.2870    6.0120   -0.3040 hc        1 MOL      0.124701
     29 N3         -3.9490    3.9570   -1.4150 n         1 MOL     -0.586986
     30 C10        -4.7820    3.5720   -2.5480 c3        1 MOL      0.312410
     31 C11        -6.1410    2.8600   -2.2590 c         1 MOL      0.290788
     32 O6         -6.9790    2.7010   -3.1610 o         1 MOL     -0.529356
     33 C12        -3.9250    2.7300   -3.4850 c3        1 MOL     -0.083062
     34 C13        -3.3690    1.4460   -2.8200 c         1 MOL      0.711951
     35 O7         -2.2260    1.0240   -3.0160 o         1 MOL     -0.728911
     36 O8         -4.0260    0.8350   -1.9790 o         1 MOL     -0.728911
     37 H13        -3.6040    3.2640   -0.7690 hn        1 MOL      0.432091
     38 H14        -5.0540    4.3990   -3.2050 h1        1 MOL      0.045124
     39 H15        -3.1240    3.3380   -3.9260 hc        1 MOL      0.013371
     40 H16        -4.4950    2.4260   -4.3610 hc        1 MOL      0.013371
     41 N4         -6.3680    2.3390   -0.9830 n         1 MOL     -0.167121
     42 C14        -7.5560    1.6450   -0.5180 c3        1 MOL     -0.331227
     43 C15        -7.6100    0.1060   -0.7890 c         1 MOL      0.539696
     44 O9         -8.5920   -0.5740   -0.5690 o         1 MOL     -0.609811
     45 H17        -5.5650    2.3840   -0.3740 hn        1 MOL      0.149863
     46 H18        -8.3960    2.1310   -1.0010 h1        1 MOL      0.150566
     47 H19        -7.6700    1.7940    0.5560 h1        1 MOL      0.150566
     48 N5         -6.5250   -0.4140   -1.3830 n         1 MOL     -0.218210
     49 C16        -6.5370   -1.7810   -1.8970 c3        1 MOL      0.051137
     50 C17        -6.4790   -2.8450   -0.7330 c         1 MOL      0.428203
     51 O10        -6.3810   -4.0270   -0.9570 o         1 MOL     -0.518538
     52 C18        -5.3850   -1.9550   -2.9070 c3        1 MOL     -0.225365
     53 C19        -3.9850   -2.1840   -2.4150 c         1 MOL      0.722391
     54 N6         -3.0710   -2.1570   -3.3330 n         1 MOL     -0.667237
     55 O11        -3.6370   -2.3190   -1.2670 o         1 MOL     -0.484307
     56 H20        -5.6660    0.1120   -1.4320 hn        1 MOL      0.207486
     57 H21        -7.4480   -2.0160   -2.4410 h1        1 MOL      0.100265
     58 H22        -5.3770   -1.0260   -3.4690 hc        1 MOL      0.045669
     59 H23        -5.5690   -2.8450   -3.5030 hc        1 MOL      0.045669
     60 H24        -3.2540   -2.0680   -4.3270 hn        1 MOL      0.335001
     61 H25        -2.1330   -2.1290   -2.9720 hn        1 MOL      0.335001
     62 N7         -6.5080   -2.3980    0.5220 n         1 MOL     -0.280782
     63 C20        -6.4770   -3.3350    1.6160 c3        1 MOL     -0.198185
     64 C21        -5.1180   -3.9590    1.9350 c         1 MOL      0.401558
     65 O12        -4.9940   -4.6900    2.9590 o         1 MOL     -0.594676
     66 H26        -6.4200   -1.4150    0.7110 hn        1 MOL      0.267597
     67 H27        -7.1700   -4.1440    1.3750 h1        1 MOL      0.125774
     68 H28        -6.9500   -2.8630    2.4790 h1        1 MOL      0.125774
     69 N8         -4.0330   -3.7050    1.1850 n         1 MOL      0.037883
     70 C22        -2.7210   -4.4140    1.3590 c3        1 MOL     -0.200354
     71 C23        -1.5520   -3.4410    1.4820 c         1 MOL      0.433690
     72 O13        -1.6180   -2.4280    0.8000 o         1 MOL     -0.461801
     73 C24        -2.4950   -5.4470    0.2340 c3        1 MOL      0.694207
     74 C25        -3.6840   -6.4380   -0.0100 c3        1 MOL     -0.400679
     75 O14        -2.4070   -4.9190   -1.0870 oh        1 MOL     -0.643555
     76 H29        -4.0290   -3.0160    0.4420 hn        1 MOL      0.066490
     77 H30        -2.7300   -5.1130    2.1940 h1        1 MOL      0.055154
     78 H31        -1.6150   -6.0570    0.4640 h1        1 MOL     -0.097721
     79 H32        -2.4270   -3.9680   -1.0160 ho        1 MOL      0.268575
     80 H33        -4.6290   -5.9560    0.2480 hc        1 MOL      0.080826
     81 H34        -3.7490   -6.7800   -1.0450 hc        1 MOL      0.080826
     82 H35        -3.4660   -7.2550    0.6800 hc        1 MOL      0.080826
     83 N9         -0.4130   -3.8580    2.0150 n         1 MOL     -0.490287
     84 C26         0.8910   -3.0980    1.9170 c3        1 MOL      0.137240
     85 C27         1.4760   -3.2250    0.4600 c         1 MOL      0.487004
     86 O15         1.7980   -4.3190    0.0320 o         1 MOL     -0.546302
     87 C28         1.9200   -3.6640    2.9970 c3        1 MOL     -0.007453
     88 C29         1.3840   -3.7190    4.4730 c3        1 MOL     -0.173064
     89 C30         3.3160   -2.8870    3.0370 c3        1 MOL     -0.114056
     90 C31         1.3190   -2.2910    5.1340 c3        1 MOL     -0.106339
     91 H36        -0.4600   -4.7250    2.5340 hn        1 MOL      0.300688
     92 H37         0.6580   -2.0530    2.1370 h1        1 MOL      0.137813
     93 H38         2.1010   -4.6600    2.5830 hc        1 MOL      0.007679
     94 H39         2.0580   -4.3190    5.0770 hc        1 MOL      0.056637
     95 H40         0.4420   -4.2670    4.4660 hc        1 MOL      0.056637
     96 H41         3.9520   -3.0620    2.1700 hc        1 MOL      0.028209
     97 H42         3.1280   -1.8350    2.8650 hc        1 MOL      0.028209
     98 H43         3.8630   -3.0990    3.9510 hc        1 MOL      0.028209
     99 H44         1.0280   -2.3940    6.1840 hc        1 MOL      0.035290
    100 H45         2.3170   -1.8640    5.1620 hc        1 MOL      0.035290
    101 H46         0.6320   -1.6370    4.5920 hc        1 MOL      0.035290
    102 N10         1.6480   -2.0290   -0.1730 n         1 MOL     -0.308403
    103 C32         2.4770   -1.8630   -1.3220 c3        1 MOL      0.157932
    104 C33         3.9610   -1.3850   -0.9680 c         1 MOL      0.418706
    105 O16         4.1340   -0.7030    0.0200 o         1 MOL     -0.196573
    106 C34         1.7190   -1.0830   -2.3740 c3        1 MOL     -0.263277
    107 C35         0.3260   -1.6110   -2.7320 c         1 MOL      0.727223
    108 O17        -0.6120   -1.3910   -1.9410 o         1 MOL     -0.679664
    109 O18         0.1900   -2.1140   -3.9030 o         1 MOL     -0.679664
    110 H47         1.3400   -1.2040    0.3330 hn        1 MOL      0.219952
    111 H48         2.5190   -2.8680   -1.7380 h1        1 MOL      0.031507
    112 H49         2.4390   -1.1320   -3.1890 hc        1 MOL      0.045342
    113 H50         1.6890   -0.0330   -2.0940 hc        1 MOL      0.045342
    114 N11         4.9660   -1.6660   -1.8360 n         1 MOL     -0.821112
    115 C36         6.4390   -1.4350   -1.5520 c3        1 MOL      0.575572
    116 C37         6.8080   -0.0050   -0.9810 c         1 MOL      0.046760
    117 O19         7.6630    0.0950   -0.0900 o         1 MOL     -0.427349
    118 C38         7.4100   -1.7590   -2.7310 c3        1 MOL     -0.383738
    119 C39         8.8760   -1.5790   -2.3590 ca        1 MOL      0.178452
    120 C40         9.7510   -0.7780   -3.1430 ca        1 MOL     -0.187975
    121 C41         9.3610   -2.2550   -1.2360 ca        1 MOL     -0.187975
    122 C42        11.0930   -0.7270   -2.7660 ca        1 MOL     -0.101263
    123 C43        10.7360   -2.1450   -0.8940 ca        1 MOL     -0.101263
    124 C44        11.5830   -1.3800   -1.7060 ca        1 MOL     -0.108615
    125 H51         4.7710   -2.0400   -2.7570 hn        1 MOL      0.390192
    126 H52         6.7170   -2.1570   -0.7870 h1        1 MOL      0.034953
    127 H53         7.0920   -1.1830   -3.6010 hc        1 MOL      0.092132
    128 H54         7.2960   -2.8120   -2.9630 hc        1 MOL      0.092132
    129 H55         9.4160   -0.2160   -4.0030 ha        1 MOL      0.119984
    130 H56         8.6590   -2.7570   -0.5970 ha        1 MOL      0.119984
    131 H57        11.7000    0.0070   -3.2830 ha        1 MOL      0.107318
    132 H58        11.0390   -2.6940   -0.0080 ha        1 MOL      0.107318
    133 H59        12.6340   -1.2260   -1.5130 ha        1 MOL      0.091232
    134 N12         6.2970    1.1300   -1.5300 n         1 MOL      0.163319
    135 C45         6.5240    2.4360   -0.9560 c3        1 MOL     -0.030317
    136 C46         5.7480    2.7210    0.3280 c         1 MOL      0.313613
    137 O20         6.3410    3.4510    1.1180 o         1 MOL     -0.502058
    138 C47         6.1370    3.3960   -2.0880 c3        1 MOL     -0.010073
    139 C48         6.0520    2.5950   -3.4370 c3        1 MOL     -0.134976
    140 C49         5.5420    1.2800   -2.7500 c3        1 MOL     -0.043468
    141 H60         7.5990    2.5340   -0.8240 h1        1 MOL      0.080613
    142 H61         5.1560    3.7960   -1.8230 hc        1 MOL      0.019252
    143 H62         6.9360    4.1260   -2.1810 hc        1 MOL      0.019252
    144 H63         5.3290    2.9780   -4.1580 hc        1 MOL      0.055910
    145 H64         7.0340    2.3500   -3.8350 hc        1 MOL      0.055910
    146 H65         4.4640    1.2650   -2.5990 h1        1 MOL      0.040953
    147 H66         5.8320    0.4650   -3.4110 h1        1 MOL      0.040953
    148 N13         4.6150    2.0960    0.6180 n         1 MOL     -0.026417
    149 C50         3.9320    2.1430    1.9240 c3        1 MOL     -0.151375
    150 C51         4.8660    1.4280    2.9130 c         1 MOL      0.460768
    151 O21         5.2290    2.0090    3.9040 o         1 MOL     -0.539360
    152 C52         2.5420    1.4180    1.8060 c3        1 MOL     -0.065355
    153 C53         1.7370    2.0070    0.6030 c3        1 MOL     -0.036796
    154 C54         0.4150    1.2330    0.4170 c         1 MOL      0.715199
    155 O22        -0.5150    1.7500   -0.3420 o         1 MOL     -0.795091
    156 O23         0.1380    0.0910    0.9420 o         1 MOL     -0.795091
    157 H67         4.3600    1.3230    0.0290 hn        1 MOL      0.052018
    158 H68         3.8870    3.1910    2.2330 h1        1 MOL      0.125444
    159 H69         2.0140    1.5990    2.7440 hc        1 MOL      0.017595
    160 H70         2.7150    0.3480    1.6650 hc        1 MOL      0.017595
    161 H71         2.3570    1.9080   -0.2870 hc        1 MOL      0.035857
    162 H72         1.4100    3.0340    0.7750 hc        1 MOL      0.035857
    163 N14         5.3880    0.2060    2.6650 n         1 MOL      0.001353
    164 C55         6.3510   -0.5540    3.4200 c3        1 MOL     -0.312820
    165 H73         7.3380   -0.1070    3.3020 h1        1 MOL      0.106362
    166 H74         6.0730   -0.5480    4.4740 h1        1 MOL      0.106362
    167 H75         6.3720   -1.5810    3.0550 h1        1 MOL      0.106362
    168 H76         5.1340   -0.1780    1.7700 hn        1 MOL      0.012892
    169 Ca1        -2.2010   -0.1510   -0.4100 Ca        1 MOL      1.770569
    170 O24        -3.7670   -0.8420    1.6510 oh        1 MOL     -1.062299
    171 H77        -4.6430   -0.6270    1.9830 ho        1 MOL      0.472179
    172 H78        -3.2040   -0.8210    2.4230 ho        1 MOL      0.472179
@<TRIPOS>BOND
     1    1    2 1   
     2    1    4 1   
     3    1    5 1   
     4    1    6 1   
     5    2    3 2   
     6    2    7 1   
     7    7    8 1   
     8    7   15 1   
     9    8    9 1   
    10    8   11 1   
    11    8   16 1   
    12    9   10 2   
    13    9   19 1   
    14   11   12 1   
    15   11   17 1   
    16   11   18 1   
    17   12   13 1   
    18   12   14 1   
    19   19   20 1   
    20   19   24 1   
    21   20   21 1   
    22   20   23 1   
    23   20   25 1   
    24   21   22 2   
    25   21   29 1   
    26   23   26 1   
    27   23   27 1   
    28   23   28 1   
    29   29   30 1   
    30   29   37 1   
    31   30   31 1   
    32   30   33 1   
    33   30   38 1   
    34   31   32 2   
    35   31   41 1   
    36   33   34 1   
    37   33   39 1   
    38   33   40 1   
    39   34   35 1   
    40   34   36 1   
    41   41   42 1   
    42   41   45 1   
    43   42   43 1   
    44   42   46 1   
    45   42   47 1   
    46   43   44 2   
    47   43   48 1   
    48   48   49 1   
    49   48   56 1   
    50   49   50 1   
    51   49   52 1   
    52   49   57 1   
    53   50   51 2   
    54   50   62 1   
    55   52   53 1   
    56   52   58 1   
    57   52   59 1   
    58   53   54 1   
    59   53   55 2   
    60   54   60 1   
    61   54   61 1   
    62   62   63 1   
    63   62   66 1   
    64   63   64 1   
    65   63   67 1   
    66   63   68 1   
    67   64   65 2   
    68   64   69 1   
    69   69   70 1   
    70   69   76 1   
    71   70   71 1   
    72   70   73 1   
    73   70   77 1   
    74   71   72 2   
    75   71   83 1   
    76   73   74 1   
    77   73   75 1   
    78   73   78 1   
    79   74   80 1   
    80   74   81 1   
    81   74   82 1   
    82   75   79 1   
    83   83   84 1   
    84   83   91 1   
    85   84   85 1   
    86   84   87 1   
    87   84   92 1   
    88   85   86 2   
    89   85  102 1   
    90   87   88 1   
    91   87   89 1   
    92   87   93 1   
    93   88   90 1   
    94   88   94 1   
    95   88   95 1   
    96   89   96 1   
    97   89   97 1   
    98   89   98 1   
    99   90   99 1   
   100   90  100 1   
   101   90  101 1   
   102  102  103 1   
   103  102  110 1   
   104  103  104 1   
   105  103  106 1   
   106  103  111 1   
   107  104  105 2   
   108  104  114 1   
   109  106  107 1   
   110  106  112 1   
   111  106  113 1   
   112  107  108 1   
   113  107  109 1   
   114  114  115 1   
   115  114  125 1   
   116  115  116 1   
   117  115  118 1   
   118  115  126 1   
   119  116  117 2   
   120  116  134 1   
   121  118  119 1   
   122  118  127 1   
   123  118  128 1   
   124  119  120 ar  
   125  119  121 ar  
   126  120  122 ar  
   127  120  129 1   
   128  121  123 ar  
   129  121  130 1   
   130  122  124 ar  
   131  122  131 1   
   132  123  124 ar  
   133  123  132 1   
   134  124  133 1   
   135  134  135 1   
   136  134  140 1   
   137  135  136 1   
   138  135  138 1   
   139  135  141 1   
   140  136  137 2   
   141  136  148 1   
   142  138  139 1   
   143  138  142 1   
   144  138  143 1   
   145  139  140 1   
   146  139  144 1   
   147  139  145 1   
   148  140  146 1   
   149  140  147 1   
   150  148  149 1   
   151  148  157 1   
   152  149  150 1   
   153  149  152 1   
   154  149  158 1   
   155  150  151 2   
   156  150  163 1   
   157  152  153 1   
   158  152  159 1   
   159  152  160 1   
   160  153  154 1   
   161  153  161 1   
   162  153  162 1   
   163  154  155 1   
   164  154  156 1   
   165  163  164 1   
   166  163  168 1   
   167  164  165 1   
   168  164  166 1   
   169  164  167 1   
   170  170  171 1   
   171  170  172 1   
@<TRIPOS>SUBSTRUCTURE
     1 MOL         1 TEMP              0 ****  ****    0 ROOT
