@<TRIPOS>MOLECULE
MOL
  182   178     1     0     0
SMALL
resp


@<TRIPOS>ATOM
      1 C1         -1.5900   -3.0280    5.7490 c3        1 MOL     -0.292549
      2 C2         -1.2630   -2.7010    4.2910 c         1 MOL      0.784837
      3 O1         -2.1370   -2.7900    3.4520 o         1 MOL     -0.618704
      4 H1         -1.4440   -2.1400    6.3620 hc        1 MOL      0.066127
      5 H2         -2.6260   -3.3550    5.8260 hc        1 MOL      0.066127
      6 H3         -0.9300   -3.8230    6.1000 hc        1 MOL      0.066127
      7 N1          0.0130   -2.2630    4.1050 n         1 MOL     -0.598589
      8 C3          0.4430   -2.1040    2.7020 c3        1 MOL      0.060304
      9 C4          0.6230   -3.5010    2.0650 c         1 MOL      0.570124
     10 O2          1.2800   -4.2880    2.7060 o         1 MOL     -0.563113
     11 C5          1.7660   -1.3770    2.8650 c3        1 MOL     -0.038021
     12 C6          2.5380   -1.2470    1.5380 c         1 MOL      0.591546
     13 O3          1.9650   -1.3890    0.4310 o         1 MOL     -0.668739
     14 O4          3.7440   -0.9510    1.6350 o         1 MOL     -0.668739
     15 H4          0.6660   -2.0860    4.8530 hn        1 MOL      0.335263
     16 H5         -0.2440   -1.5390    2.0710 h1        1 MOL     -0.037030
     17 H6          2.3980   -1.8330    3.6270 hc        1 MOL      0.026591
     18 H7          1.5420   -0.3780    3.2200 hc        1 MOL      0.026591
     19 N2          0.0790   -3.7510    0.8700 n         1 MOL     -0.252325
     20 C7         -0.0390   -5.0880    0.1570 c3        1 MOL     -0.260073
     21 C8          1.2150   -5.6430   -0.4220 c         1 MOL      0.643185
     22 O5          1.2750   -6.8360   -0.6450 o         1 MOL     -0.595483
     23 C9         -1.1060   -4.9350   -0.9490 c3        1 MOL     -0.085715
     24 C10        -2.4950   -4.9890   -0.2970 c3        1 MOL     -0.002883
     25 C11        -3.5350   -5.0290   -1.3950 c3        1 MOL     -0.179391
     26 C12        -4.9350   -5.1710   -0.7430 c3        1 MOL      0.084796
     27 N3         -6.0420   -5.0170   -1.7400 n4        1 MOL     -0.366462
     28 H8         -0.2930   -2.9130    0.4540 hn        1 MOL      0.227626
     29 H9         -0.3890   -5.8790    0.8250 h1        1 MOL      0.147463
     30 H10        -1.0120   -5.7580   -1.6740 hc        1 MOL      0.071997
     31 H11        -0.9000   -4.0560   -1.5530 hc        1 MOL      0.071997
     32 H12        -2.6460   -4.0700    0.2690 hc        1 MOL      0.064817
     33 H13        -2.5920   -5.8050    0.4230 hc        1 MOL      0.064817
     34 H14        -3.3470   -5.8950   -2.0360 hc        1 MOL      0.057509
     35 H15        -3.4570   -4.1040   -1.9580 hc        1 MOL      0.057509
     36 H16        -5.0460   -4.3690   -0.0090 hx        1 MOL      0.091129
     37 H17        -5.1090   -6.1020   -0.2000 hx        1 MOL      0.091129
     38 H18        -5.9750   -5.8050   -2.3650 hn        1 MOL      0.321094
     39 H19        -6.9550   -5.1480   -1.3230 hn        1 MOL      0.321094
     40 H20        -6.0030   -4.2000   -2.3400 hn        1 MOL      0.321094
     41 N4          2.2100   -4.8340   -0.7380 n         1 MOL     -0.476074
     42 C13         3.5200   -5.2280   -1.2340 c3        1 MOL      0.282875
     43 C14         4.6510   -4.9760   -0.2780 c         1 MOL      0.392545
     44 O6          5.5410   -5.7990   -0.1860 o         1 MOL     -0.536915
     45 C15         3.7560   -4.5930   -2.5730 c3        1 MOL     -0.424745
     46 C16         3.4560   -3.1240   -2.7670 c         1 MOL      0.976193
     47 O7          3.7740   -2.6080   -3.8580 o         1 MOL     -0.753891
     48 O8          2.8480   -2.4840   -1.8600 o         1 MOL     -0.753891
     49 H21         2.0540   -3.8610   -0.5640 hn        1 MOL      0.230905
     50 H22         3.5770   -6.3170   -1.3520 h1        1 MOL      0.060254
     51 H23         3.2910   -5.1070   -3.4140 hc        1 MOL      0.087358
     52 H24         4.8250   -4.5950   -2.7920 hc        1 MOL      0.087358
     53 N5          4.5040   -3.9270    0.5140 n         1 MOL     -0.144005
     54 C17         5.4920   -3.5040    1.5240 c3        1 MOL     -0.236516
     55 C18         6.3550   -2.4180    0.8930 c         1 MOL      0.516839
     56 O9          7.4900   -2.2520    1.3500 o         1 MOL     -0.567370
     57 H25         3.7440   -3.3160    0.2620 hn        1 MOL      0.182678
     58 H26         6.1690   -4.3260    1.7750 h1        1 MOL      0.142681
     59 H27         5.0620   -3.0490    2.4110 h1        1 MOL      0.142681
     60 N6          5.9670   -1.7210   -0.1710 n         1 MOL     -0.081113
     61 C19         6.7740   -0.6720   -0.7240 c3        1 MOL     -0.239801
     62 C20         6.7790    0.5730    0.2390 c         1 MOL      0.399143
     63 O10         7.5680    1.5030    0.0360 o         1 MOL     -0.525908
     64 C21         6.2020   -0.2770   -2.1390 c3        1 MOL      0.085478
     65 C22         5.0580    0.6060   -2.3140 c         1 MOL      0.547564
     66 N7          5.1460    1.6810   -3.0520 n         1 MOL     -0.695726
     67 O11         3.9280    0.2770   -1.8780 o         1 MOL     -0.695033
     68 H28         5.0520   -1.8910   -0.5450 hn        1 MOL      0.041520
     69 H29         7.8310   -0.9530   -0.7570 h1        1 MOL      0.155615
     70 H30         6.0810   -1.1570   -2.7790 hc        1 MOL      0.030504
     71 H31         6.9800    0.1840   -2.7510 hc        1 MOL      0.030504
     72 H32         6.0280    1.8820   -3.5030 hn        1 MOL      0.352562
     73 H33         4.2940    2.1870   -3.2520 hn        1 MOL      0.352562
     74 N8          5.9560    0.6670    1.2620 n         1 MOL     -0.038965
     75 C23         5.9080    1.7360    2.2530 c3        1 MOL     -0.355349
     76 C24         4.7560    2.7950    2.0440 c         1 MOL      0.661952
     77 O12         4.6850    3.7050    2.8140 o         1 MOL     -0.561607
     78 H34         5.2980   -0.0940    1.3670 hn        1 MOL      0.187717
     79 H35         6.8830    2.2300    2.2970 h1        1 MOL      0.144593
     80 H36         5.7400    1.3360    3.2500 h1        1 MOL      0.144593
     81 N9          3.9230    2.6230    0.9930 n         1 MOL     -0.403411
     82 C25         2.7880    3.5070    0.6760 c3        1 MOL      0.250236
     83 C26         1.4430    2.7940    0.4120 c         1 MOL      0.405686
     84 O13         1.4680    1.7350   -0.2090 o         1 MOL     -0.509807
     85 C27         3.1210    4.3420   -0.5680 c3        1 MOL     -0.006783
     86 C28         4.2640    5.2800   -0.4430 ca        1 MOL      0.042393
     87 C29         5.6180    4.9740   -0.7780 ca        1 MOL     -0.176100
     88 C30         4.0380    6.6520   -0.1420 ca        1 MOL     -0.176100
     89 C31         6.6750    5.7860   -0.5030 ca        1 MOL     -0.275770
     90 C32         5.1080    7.5770    0.1770 ca        1 MOL     -0.275770
     91 C33         6.4180    7.0630    0.0190 ca        1 MOL      0.382734
     92 O14         7.4860    7.8070    0.3400 oh        1 MOL     -0.467766
     93 H37         3.9270    1.7320    0.5270 hn        1 MOL      0.260176
     94 H38         2.6080    4.1200    1.5600 h1        1 MOL     -0.018577
     95 H39         2.2330    4.9020   -0.8710 hc        1 MOL     -0.003913
     96 H40         3.3590    3.6860   -1.3940 hc        1 MOL     -0.003913
     97 H41         5.8450    3.9470   -1.0120 ha        1 MOL      0.115730
     98 H42         3.0220    6.9850    0.0040 ha        1 MOL      0.115730
     99 H43         7.6850    5.4900   -0.7330 ha        1 MOL      0.158733
    100 H44         4.8530    8.5720    0.5340 ha        1 MOL      0.158733
    101 H45         7.2050    8.5280    0.9110 ho        1 MOL      0.340154
    102 N10         0.3320    3.3860    0.8760 n         1 MOL     -0.449644
    103 C34        -1.0340    2.7790    0.9410 c3        1 MOL      0.186862
    104 C35        -1.9860    3.5590    0.1130 c         1 MOL      0.429645
    105 O15        -2.1520    4.7540    0.3850 o         1 MOL     -0.555424
    106 C36        -1.4890    2.6660    2.4720 c3        1 MOL     -0.001716
    107 C37        -0.8790    1.4330    3.1320 c3        1 MOL      0.180085
    108 C38        -3.0340    2.6910    2.7050 c3        1 MOL     -0.171494
    109 C39        -1.2600    0.9380    4.5430 c3        1 MOL     -0.406753
    110 H46         0.3930    4.2500    1.3840 hn        1 MOL      0.289808
    111 H47        -0.9610    1.7610    0.5620 h1        1 MOL     -0.039492
    112 H48        -1.1000    3.5380    3.0050 hc        1 MOL      0.021115
    113 H49         0.2060    1.5590    3.1600 hc        1 MOL     -0.007139
    114 H50        -1.0240    0.6430    2.4040 hc        1 MOL     -0.007139
    115 H51        -3.1870    2.7480    3.7880 hc        1 MOL      0.040320
    116 H52        -3.5470    3.5280    2.2380 hc        1 MOL      0.040320
    117 H53        -3.5060    1.7640    2.3640 hc        1 MOL      0.040320
    118 H54        -1.7590    1.7160    5.1200 hc        1 MOL      0.100906
    119 H55        -2.0320    0.1780    4.4930 hc        1 MOL      0.100906
    120 H56        -0.4030    0.4700    5.0280 hc        1 MOL      0.100906
    121 N11        -2.8040    2.9310   -0.7280 n         1 MOL     -0.221359
    122 C40        -3.9560    3.6790   -1.4080 c3        1 MOL     -0.018061
    123 C41        -5.2490    3.5410   -0.6040 c         1 MOL      0.522051
    124 O16        -5.2410    2.7280    0.3530 o         1 MOL     -0.466706
    125 C42        -4.1630    3.2470   -2.8570 c3        1 MOL     -0.144374
    126 O17        -4.5350    1.8790   -2.8990 oh        1 MOL     -0.503936
    127 H57        -2.6130    1.9900   -1.0580 hn        1 MOL      0.233382
    128 H58        -3.7200    4.7370   -1.5210 h1        1 MOL      0.080158
    129 H59        -3.2090    3.3710   -3.3700 h1        1 MOL      0.109402
    130 H60        -4.9950    3.7950   -3.3080 h1        1 MOL      0.109402
    131 H61        -3.8200    1.4290   -3.3700 ho        1 MOL      0.391291
    132 N12        -6.3240    4.1960   -0.9600 n         1 MOL     -0.431983
    133 C43        -7.6100    3.8450   -0.3290 c3        1 MOL      0.056579
    134 C44        -8.0020    2.3970   -0.6740 c         1 MOL      0.539175
    135 O18        -8.6420    1.8310    0.1910 o         1 MOL     -0.529640
    136 C45        -8.6300    4.9380   -0.7480 c3        1 MOL     -0.311988
    137 H62        -6.4100    4.9980   -1.5640 hn        1 MOL      0.296792
    138 H63        -7.5040    3.9360    0.7470 h1        1 MOL      0.122599
    139 H64        -8.7680    4.9870   -1.8320 hc        1 MOL      0.101205
    140 H65        -9.5840    4.6660   -0.3120 hc        1 MOL      0.101205
    141 H66        -8.2990    5.9140   -0.3870 hc        1 MOL      0.101205
    142 N13        -7.6050    1.7380   -1.7240 n         1 MOL     -0.415656
    143 C46        -8.0400    0.3340   -1.9550 c3        1 MOL      0.091138
    144 C47        -7.4390   -0.6570   -0.8950 c         1 MOL      0.375940
    145 O19        -7.9610   -1.6870   -0.4950 o         1 MOL     -0.532990
    146 C48        -7.5600   -0.0780   -3.3580 c3        1 MOL     -0.247683
    147 H67        -7.1780    2.2730   -2.4600 hn        1 MOL      0.289272
    148 H68        -9.1040    0.1470   -1.8800 h1        1 MOL      0.090003
    149 H69        -7.9850    0.5030   -4.1710 hc        1 MOL      0.068624
    150 H70        -6.4810   -0.1180   -3.4150 hc        1 MOL      0.068624
    151 H71        -7.8900   -1.1200   -3.4820 hc        1 MOL      0.068624
    152 N14        -6.2520   -0.2770   -0.4720 n         1 MOL     -0.039849
    153 C49        -5.4080   -0.9410    0.5380 c3        1 MOL     -0.335315
    154 C50        -6.0640   -0.6680    1.9500 c         1 MOL      0.576345
    155 O20        -6.0610   -1.5430    2.8160 o         1 MOL     -0.561088
    156 C51        -3.9610   -0.4870    0.4520 c3        1 MOL      0.099118
    157 C52        -3.1830   -1.0020   -0.7460 c3        1 MOL      0.190817
    158 C53        -1.7400   -0.5570   -0.8360 c         1 MOL      0.701322
    159 O21        -0.9060   -1.3750   -0.4720 o         1 MOL     -0.734479
    160 O22        -1.3240    0.4400   -1.4790 o         1 MOL     -0.734479
    161 H72        -5.8660    0.5080   -0.9660 hn        1 MOL      0.132416
    162 H73        -5.4460   -2.0270    0.5140 h1        1 MOL      0.121021
    163 H74        -3.4220   -0.6480    1.3900 hc        1 MOL      0.045776
    164 H75        -3.9480    0.6030    0.4340 hc        1 MOL      0.045776
    165 H76        -3.6970   -0.6940   -1.6500 hc        1 MOL     -0.111414
    166 H77        -3.2550   -2.0870   -0.6690 hc        1 MOL     -0.111414
    167 N15        -6.5500    0.5290    2.1930 n         1 MOL     -0.100378
    168 C54        -7.4090    0.7290    3.3970 c3        1 MOL     -0.482191
    169 H78        -7.4100    1.7830    3.6710 h1        1 MOL      0.170771
    170 H79        -8.4280    0.4120    3.1730 h1        1 MOL      0.170771
    171 H80        -7.0170    0.1380    4.2250 h1        1 MOL      0.170771
    172 H81        -6.6500    1.1950    1.4410 hn        1 MOL      0.140394
    173 Ca1         1.2170   -0.4030   -1.7670 Ca        1 MOL      1.827029
    174 O23        -0.2240   -2.2030   -3.1910 oh        1 MOL     -0.869673
    175 H82        -1.1620   -2.3790   -3.1850 ho        1 MOL      0.412896
    176 H83         0.1300   -2.8690   -3.7870 ho        1 MOL      0.412896
    177 O24         1.1230    1.9480   -2.9510 oh        1 MOL     -0.869673
    178 H84         0.3390    2.4960   -3.0070 ho        1 MOL      0.412896
    179 H85         1.8020    2.4510   -3.4010 ho        1 MOL      0.412896
    180 O25         2.1680   -0.6060   -4.5090 oh        1 MOL     -0.869673
    181 H86         2.6210    0.0180   -5.0740 ho        1 MOL      0.412896
    182 H87         2.8420   -1.2660   -4.2910 ho        1 MOL      0.412896
@<TRIPOS>BOND
     1    1    2 1   
     2    1    4 1   
     3    1    5 1   
     4    1    6 1   
     5    2    3 2   
     6    2    7 1   
     7    7    8 1   
     8    7   15 1   
     9    8    9 1   
    10    8   11 1   
    11    8   16 1   
    12    9   10 2   
    13    9   19 1   
    14   11   12 1   
    15   11   17 1   
    16   11   18 1   
    17   12   13 1   
    18   12   14 1   
    19   19   20 1   
    20   19   28 1   
    21   20   21 1   
    22   20   23 1   
    23   20   29 1   
    24   21   22 2   
    25   21   41 1   
    26   23   24 1   
    27   23   30 1   
    28   23   31 1   
    29   24   25 1   
    30   24   32 1   
    31   24   33 1   
    32   25   26 1   
    33   25   34 1   
    34   25   35 1   
    35   26   27 1   
    36   26   36 1   
    37   26   37 1   
    38   27   38 1   
    39   27   39 1   
    40   27   40 1   
    41   41   42 1   
    42   41   49 1   
    43   42   43 1   
    44   42   45 1   
    45   42   50 1   
    46   43   44 2   
    47   43   53 1   
    48   45   46 1   
    49   45   51 1   
    50   45   52 1   
    51   46   47 1   
    52   46   48 1   
    53   53   54 1   
    54   53   57 1   
    55   54   55 1   
    56   54   58 1   
    57   54   59 1   
    58   55   56 2   
    59   55   60 1   
    60   60   61 1   
    61   60   68 1   
    62   61   62 1   
    63   61   64 1   
    64   61   69 1   
    65   62   63 2   
    66   62   74 1   
    67   64   65 1   
    68   64   70 1   
    69   64   71 1   
    70   65   66 1   
    71   65   67 2   
    72   66   72 1   
    73   66   73 1   
    74   74   75 1   
    75   74   78 1   
    76   75   76 1   
    77   75   79 1   
    78   75   80 1   
    79   76   77 2   
    80   76   81 1   
    81   81   82 1   
    82   81   93 1   
    83   82   83 1   
    84   82   85 1   
    85   82   94 1   
    86   83   84 2   
    87   83  102 1   
    88   85   86 1   
    89   85   95 1   
    90   85   96 1   
    91   86   87 ar  
    92   86   88 ar  
    93   87   89 ar  
    94   87   97 1   
    95   88   90 ar  
    96   88   98 1   
    97   89   91 ar  
    98   89   99 1   
    99   90   91 ar  
   100   90  100 1   
   101   91   92 1   
   102   92  101 1   
   103  102  103 1   
   104  102  110 1   
   105  103  104 1   
   106  103  106 1   
   107  103  111 1   
   108  104  105 2   
   109  104  121 1   
   110  106  107 1   
   111  106  108 1   
   112  106  112 1   
   113  107  109 1   
   114  107  113 1   
   115  107  114 1   
   116  108  115 1   
   117  108  116 1   
   118  108  117 1   
   119  109  118 1   
   120  109  119 1   
   121  109  120 1   
   122  121  122 1   
   123  121  127 1   
   124  122  123 1   
   125  122  125 1   
   126  122  128 1   
   127  123  124 2   
   128  123  132 1   
   129  125  126 1   
   130  125  129 1   
   131  125  130 1   
   132  126  131 1   
   133  132  133 1   
   134  132  137 1   
   135  133  134 1   
   136  133  136 1   
   137  133  138 1   
   138  134  135 2   
   139  134  142 1   
   140  136  139 1   
   141  136  140 1   
   142  136  141 1   
   143  142  143 1   
   144  142  147 1   
   145  143  144 1   
   146  143  146 1   
   147  143  148 1   
   148  144  145 2   
   149  144  152 1   
   150  146  149 1   
   151  146  150 1   
   152  146  151 1   
   153  152  153 1   
   154  152  161 1   
   155  153  154 1   
   156  153  156 1   
   157  153  162 1   
   158  154  155 2   
   159  154  167 1   
   160  156  157 1   
   161  156  163 1   
   162  156  164 1   
   163  157  158 1   
   164  157  165 1   
   165  157  166 1   
   166  158  159 1   
   167  158  160 1   
   168  167  168 1   
   169  167  172 1   
   170  168  169 1   
   171  168  170 1   
   172  168  171 1   
   173  174  175 1   
   174  174  176 1   
   175  177  178 1   
   176  177  179 1   
   177  180  181 1   
   178  180  182 1   
@<TRIPOS>SUBSTRUCTURE
     1 MOL         1 TEMP              0 ****  ****    0 ROOT
