@<TRIPOS>MOLECULE
MOL
  175   173     1     0     0
SMALL
resp


@<TRIPOS>ATOM
      1 C1          0.1880    2.8310    5.6920 c3        1 MOL     -0.349790
      2 C2         -0.2530    2.5090    4.2820 c         1 MOL      0.730707
      3 O1          0.3480    3.0230    3.3210 o         1 MOL     -0.602656
      4 H1          1.2220    3.1730    5.6800 hc        1 MOL      0.088581
      5 H2         -0.4480    3.6170    6.1020 hc        1 MOL      0.088581
      6 H3          0.1080    1.9380    6.3110 hc        1 MOL      0.088581
      7 N1         -1.3750    1.8360    4.1340 n         1 MOL     -0.666968
      8 C3         -2.0840    1.5910    2.8060 c3        1 MOL      0.287429
      9 C4         -2.7440    2.9300    2.3980 c         1 MOL      0.586986
     10 O2         -3.6000    3.4780    3.0900 o         1 MOL     -0.621079
     11 C5         -3.0890    0.4940    2.8660 c3        1 MOL     -0.205581
     12 C6         -3.8930    0.2740    1.5510 c         1 MOL      0.675764
     13 O3         -4.7660   -0.6390    1.5370 o         1 MOL     -0.670836
     14 O4         -3.5900    1.0350    0.5680 o         1 MOL     -0.670836
     15 H4         -1.7870    1.4650    4.9750 hn        1 MOL      0.323237
     16 H5         -1.3200    1.3370    2.0800 h1        1 MOL     -0.068688
     17 H6         -3.7770    0.7240    3.6800 hc        1 MOL      0.040820
     18 H7         -2.6410   -0.4500    3.1810 hc        1 MOL      0.040820
     19 N2         -2.1910    3.6150    1.3590 n         1 MOL     -0.142901
     20 C7         -2.5710    5.0020    0.9360 c3        1 MOL     -0.098990
     21 C8         -3.3720    5.0970   -0.4110 c         1 MOL      0.591248
     22 O5         -3.6970    6.1470   -0.8150 o         1 MOL     -0.568321
     23 C9         -1.1880    5.7700    0.9070 c3        1 MOL     -0.187233
     24 H8         -1.4810    3.1410    0.8230 hn        1 MOL      0.150913
     25 H9         -3.2150    5.4970    1.6730 h1        1 MOL      0.091282
     26 H10        -1.1580    6.6960    0.3310 hc        1 MOL      0.060812
     27 H11        -0.8070    6.0050    1.9010 hc        1 MOL      0.060812
     28 H12        -0.3990    5.2070    0.4190 hc        1 MOL      0.060812
     29 N3         -3.8100    3.9870   -0.9830 n         1 MOL     -0.348786
     30 C10        -4.9930    3.9290   -1.9000 c3        1 MOL     -0.092429
     31 C11        -6.1970    3.1390   -1.3550 c         1 MOL      0.401974
     32 O6         -7.2440    3.0300   -2.0080 o         1 MOL     -0.533822
     33 C12        -4.7090    3.5430   -3.3530 c3        1 MOL      0.109085
     34 C13        -3.7410    2.4090   -3.4720 c         1 MOL      0.624435
     35 O7         -3.3730    2.1570   -4.5860 o         1 MOL     -0.693046
     36 O8         -3.4970    1.6000   -2.5420 o         1 MOL     -0.693046
     37 H13        -3.3500    3.1090   -0.7930 hn        1 MOL      0.197528
     38 H14        -5.3110    4.9680   -1.9910 h1        1 MOL      0.107004
     39 H15        -4.3850    4.4240   -3.8980 hc        1 MOL     -0.008661
     40 H16        -5.6620    3.3470   -3.8430 hc        1 MOL     -0.008661
     41 N4         -6.0960    2.6820   -0.0800 n         1 MOL     -0.126448
     42 C14        -7.1280    2.0450    0.7980 c3        1 MOL     -0.309298
     43 C15        -7.5760    0.7550    0.1840 c         1 MOL      0.564808
     44 O9         -8.6290    0.2560    0.4280 o         1 MOL     -0.558410
     45 H17        -5.1860    2.8330    0.3500 hn        1 MOL      0.133900
     46 H18        -8.0030    2.7030    0.8360 h1        1 MOL      0.145759
     47 H19        -6.6430    1.8810    1.7630 h1        1 MOL      0.145759
     48 N5         -6.7850    0.1020   -0.7410 n         1 MOL     -0.089144
     49 C16        -7.2110   -0.9810   -1.5680 c3        1 MOL      0.012500
     50 C17        -7.3560   -2.2710   -0.6750 c         1 MOL      0.421388
     51 O10        -8.2770   -2.9600   -0.9050 o         1 MOL     -0.546765
     52 C18        -6.2470   -1.1370   -2.7660 c3        1 MOL     -0.366182
     53 C19        -5.1210   -2.0180   -2.4370 c         1 MOL      0.682763
     54 N6         -5.1520   -3.2240   -2.8970 n         1 MOL     -0.705390
     55 O11        -4.1450   -1.6590   -1.7470 o         1 MOL     -0.708364
     56 H20        -5.9080    0.5260   -0.9900 hn        1 MOL      0.071321
     57 H21        -8.1620   -0.6940   -2.0240 h1        1 MOL      0.081733
     58 H22        -5.8450   -0.1310   -2.8650 hc        1 MOL      0.146128
     59 H23        -6.7550   -1.5620   -3.6370 hc        1 MOL      0.146128
     60 H24        -5.7950   -3.4470   -3.6360 hn        1 MOL      0.338306
     61 H25        -4.4830   -3.9430   -2.6560 hn        1 MOL      0.338306
     62 N7         -6.4960   -2.5040    0.3430 n         1 MOL     -0.063543
     63 C20        -6.5270   -3.6940    1.1920 c3        1 MOL     -0.217068
     64 C21        -5.2140   -4.2740    1.5450 c         1 MOL      0.571637
     65 O12        -5.2130   -5.3040    2.2730 o         1 MOL     -0.593782
     66 H26        -5.8790   -1.7400    0.5660 hn        1 MOL      0.147786
     67 H27        -7.2080   -4.4140    0.7410 h1        1 MOL      0.109636
     68 H28        -6.9510   -3.3490    2.1400 h1        1 MOL      0.109636
     69 N8         -4.0550   -3.7820    1.0730 n         1 MOL     -0.235174
     70 C22        -2.6310   -4.2410    1.2030 c3        1 MOL     -0.100731
     71 C23        -1.5550   -3.1010    1.2450 c         1 MOL      0.544865
     72 O13        -1.8260   -1.9480    0.8550 o         1 MOL     -0.574727
     73 C24        -2.2840   -5.1620    0.0210 c3        1 MOL      0.245900
     74 C25        -3.3270   -6.2820   -0.1130 c3        1 MOL     -0.390973
     75 O14        -2.2820   -4.6080   -1.2750 oh        1 MOL     -0.588681
     76 H29        -4.2240   -3.0220    0.4260 hn        1 MOL      0.172868
     77 H30        -2.6140   -4.9510    2.0260 h1        1 MOL      0.114382
     78 H31        -1.2860   -5.5670    0.1400 h1        1 MOL      0.044113
     79 H32        -2.3360   -5.3140   -1.9290 ho        1 MOL      0.402751
     80 H33        -4.2040   -5.8830   -0.6230 hc        1 MOL      0.103596
     81 H34        -2.9890   -7.1310   -0.7100 hc        1 MOL      0.103596
     82 H35        -3.7510   -6.5710    0.8580 hc        1 MOL      0.103596
     83 N9         -0.3210   -3.3800    1.6930 n         1 MOL     -0.205095
     84 C26         0.7860   -2.4450    1.7310 c3        1 MOL     -0.072909
     85 C27         1.7300   -2.8180    0.6060 c         1 MOL      0.402669
     86 O15         2.4110   -3.8440    0.5640 o         1 MOL     -0.560427
     87 C28         1.4050   -2.5230    3.1710 c3        1 MOL     -0.010995
     88 C29         0.4380   -2.0770    4.2840 c3        1 MOL      0.171742
     89 C30         2.6740   -1.5900    3.1910 c3        1 MOL     -0.068019
     90 C31        -0.1180   -3.2860    5.0460 c3        1 MOL     -0.125483
     91 H36        -0.1810   -4.3100    2.0430 hn        1 MOL      0.193500
     92 H37         0.4160   -1.4210    1.6060 h1        1 MOL      0.165546
     93 H38         1.8220   -3.4940    3.4520 hc        1 MOL      0.035770
     94 H39        -0.4270   -1.4960    3.9650 hc        1 MOL     -0.039410
     95 H40         0.9440   -1.4690    5.0280 hc        1 MOL     -0.039410
     96 H41         3.1700   -1.5650    4.1570 hc        1 MOL      0.011417
     97 H42         3.4790   -1.9560    2.5600 hc        1 MOL      0.011417
     98 H43         2.5010   -0.5580    2.8550 hc        1 MOL      0.011417
     99 H44        -0.9370   -3.8030    4.5530 hc        1 MOL      0.010316
    100 H45         0.7310   -3.9470    5.2300 hc        1 MOL      0.010316
    101 H46        -0.3820   -2.9620    6.0560 hc        1 MOL      0.010316
    102 N10         1.8480   -1.9680   -0.3980 n         1 MOL     -0.317883
    103 C32         3.0330   -1.9300   -1.3220 c3        1 MOL      0.137071
    104 C33         4.3660   -1.4670   -0.7430 c         1 MOL      0.479886
    105 O16         4.4260   -0.7900    0.3040 o         1 MOL     -0.329361
    106 C34         2.6140   -1.2730   -2.6450 c3        1 MOL     -0.235312
    107 C35         3.4960   -1.4520   -3.9170 c         1 MOL      0.680335
    108 O17         4.4690   -2.2160   -3.8150 o         1 MOL     -0.694238
    109 O18         3.0780   -0.9020   -5.0020 o         1 MOL     -0.694238
    110 H47         1.2150   -1.1760   -0.4160 hn        1 MOL      0.176889
    111 H48         3.2240   -2.9630   -1.6070 h1        1 MOL      0.060521
    112 H49         2.7510   -0.2120   -2.4210 hc        1 MOL      0.069059
    113 H50         1.5560   -1.4690   -2.7910 hc        1 MOL      0.069059
    114 N11         5.5340   -1.8770   -1.2420 n         1 MOL     -0.656773
    115 C36         6.8610   -1.4620   -0.7230 c3        1 MOL      0.363714
    116 C37         6.9490    0.0760   -0.5020 c         1 MOL      0.463781
    117 O19         7.3340    0.4580    0.6320 o         1 MOL     -0.544560
    118 C38         8.0270   -1.8980   -1.6570 c3        1 MOL     -0.013643
    119 C39         9.4220   -1.6220   -1.0830 ca        1 MOL      0.028229
    120 C40         9.7610   -2.2850    0.1230 ca        1 MOL     -0.200445
    121 C41        10.2200   -0.5890   -1.5700 ca        1 MOL     -0.200445
    122 C42        10.9590   -1.9870    0.7630 ca        1 MOL     -0.026489
    123 C43        11.3890   -0.2980   -0.8950 ca        1 MOL     -0.026489
    124 C44        11.8090   -1.0090    0.2880 ca        1 MOL     -0.176308
    125 H51         5.5870   -2.3950   -2.1040 hn        1 MOL      0.330916
    126 H52         6.9880   -1.9640    0.2390 h1        1 MOL      0.002200
    127 H53         7.8290   -1.2230   -2.4910 hc        1 MOL      0.012434
    128 H54         7.9820   -2.9390   -1.9540 hc        1 MOL      0.012434
    129 H55         9.1200   -3.0020    0.6020 ha        1 MOL      0.124913
    130 H56         9.9470   -0.0510   -2.4700 ha        1 MOL      0.124913
    131 H57        11.2920   -2.6210    1.5760 ha        1 MOL      0.075781
    132 H58        12.1400    0.3580   -1.2910 ha        1 MOL      0.075781
    133 H59        12.8240   -0.8580    0.6140 ha        1 MOL      0.106821
    134 N12         6.6090    0.9780   -1.4700 n         1 MOL     -0.213940
    135 C45         6.6640    2.4550   -1.3250 c3        1 MOL      0.009331
    136 C46         5.6720    2.9770   -0.2480 c         1 MOL      0.350610
    137 O20         5.8030    4.0730    0.2640 o         1 MOL     -0.504952
    138 C47         6.3060    3.0640   -2.6830 c3        1 MOL     -0.144776
    139 C48         5.6230    1.9220   -3.4200 c3        1 MOL     -0.053472
    140 C49         6.4100    0.7350   -2.9120 c3        1 MOL      0.019413
    141 H60         7.6600    2.7760   -1.0340 h1        1 MOL      0.067012
    142 H61         5.6380    3.9100   -2.5360 hc        1 MOL      0.071672
    143 H62         7.2180    3.3210   -3.2250 hc        1 MOL      0.071672
    144 H63         4.5970    1.7940   -3.0490 hc        1 MOL      0.039188
    145 H64         5.8100    1.9470   -4.4860 hc        1 MOL      0.039188
    146 H65         5.8510   -0.1830   -3.0320 h1        1 MOL      0.039056
    147 H66         7.3370    0.7820   -3.4830 h1        1 MOL      0.039056
    148 N13         4.5930    2.2340   -0.0200 n         1 MOL     -0.142699
    149 C50         3.7990    2.4790    1.2220 c3        1 MOL     -0.188839
    150 C51         4.5270    1.9790    2.5220 c         1 MOL      0.417889
    151 O21         4.5420    2.5380    3.6150 o         1 MOL     -0.561818
    152 C52         2.4360    1.7270    1.0690 c3        1 MOL      0.233451
    153 C53         1.4860    2.3340    0.0370 c3        1 MOL     -0.201604
    154 C54         0.1810    1.5280   -0.0970 c         1 MOL      0.766444
    155 O22         0.2110    0.2660   -0.1620 o         1 MOL     -0.718690
    156 O23        -0.8400    2.0820   -0.5980 o         1 MOL     -0.718690
    157 H67         4.4740    1.3290   -0.4560 hn        1 MOL      0.197663
    158 H68         3.7110    3.5560    1.3440 h1        1 MOL      0.142070
    159 H69         1.9840    1.6250    2.0580 hc        1 MOL     -0.033715
    160 H70         2.5640    0.6780    0.8100 hc        1 MOL     -0.033715
    161 H71         1.9760    2.2890   -0.9360 hc        1 MOL      0.035085
    162 H72         1.2050    3.3380    0.3690 hc        1 MOL      0.035085
    163 N14         5.2260    0.7970    2.5260 n         1 MOL      0.067084
    164 C55         5.9780    0.3190    3.7020 c3        1 MOL     -0.213461
    165 H73         5.9910    1.0980    4.4640 h1        1 MOL      0.070243
    166 H74         5.4970   -0.5730    4.1030 h1        1 MOL      0.070243
    167 H75         6.9990    0.0810    3.4080 h1        1 MOL      0.070243
    168 H76         5.1790    0.2010    1.7170 hn        1 MOL      0.010699
    169 Ca1        -2.0870   -0.0640   -1.2180 Ca        1 MOL      1.754967
    170 O24        -0.8360    0.9820   -3.4450 oh        1 MOL     -0.861053
    171 H77        -1.5310    1.5950   -3.6940 ho        1 MOL      0.410079
    172 H78        -0.1170    1.1810   -4.0460 ho        1 MOL      0.410079
    173 O25        -1.4720   -2.4290   -2.4870 oh        1 MOL     -0.861053
    174 H79        -1.7830   -3.2340   -2.0700 ho        1 MOL      0.410079
    175 H80        -1.3140   -2.6690   -3.3990 ho        1 MOL      0.410079
@<TRIPOS>BOND
     1    1    2 1   
     2    1    4 1   
     3    1    5 1   
     4    1    6 1   
     5    2    3 2   
     6    2    7 1   
     7    7    8 1   
     8    7   15 1   
     9    8    9 1   
    10    8   11 1   
    11    8   16 1   
    12    9   10 2   
    13    9   19 1   
    14   11   12 1   
    15   11   17 1   
    16   11   18 1   
    17   12   13 1   
    18   12   14 1   
    19   19   20 1   
    20   19   24 1   
    21   20   21 1   
    22   20   23 1   
    23   20   25 1   
    24   21   22 2   
    25   21   29 1   
    26   23   26 1   
    27   23   27 1   
    28   23   28 1   
    29   29   30 1   
    30   29   37 1   
    31   30   31 1   
    32   30   33 1   
    33   30   38 1   
    34   31   32 2   
    35   31   41 1   
    36   33   34 1   
    37   33   39 1   
    38   33   40 1   
    39   34   35 1   
    40   34   36 1   
    41   41   42 1   
    42   41   45 1   
    43   42   43 1   
    44   42   46 1   
    45   42   47 1   
    46   43   44 2   
    47   43   48 1   
    48   48   49 1   
    49   48   56 1   
    50   49   50 1   
    51   49   52 1   
    52   49   57 1   
    53   50   51 2   
    54   50   62 1   
    55   52   53 1   
    56   52   58 1   
    57   52   59 1   
    58   53   54 1   
    59   53   55 2   
    60   54   60 1   
    61   54   61 1   
    62   62   63 1   
    63   62   66 1   
    64   63   64 1   
    65   63   67 1   
    66   63   68 1   
    67   64   65 2   
    68   64   69 1   
    69   69   70 1   
    70   69   76 1   
    71   70   71 1   
    72   70   73 1   
    73   70   77 1   
    74   71   72 2   
    75   71   83 1   
    76   73   74 1   
    77   73   75 1   
    78   73   78 1   
    79   74   80 1   
    80   74   81 1   
    81   74   82 1   
    82   75   79 1   
    83   83   84 1   
    84   83   91 1   
    85   84   85 1   
    86   84   87 1   
    87   84   92 1   
    88   85   86 2   
    89   85  102 1   
    90   87   88 1   
    91   87   89 1   
    92   87   93 1   
    93   88   90 1   
    94   88   94 1   
    95   88   95 1   
    96   89   96 1   
    97   89   97 1   
    98   89   98 1   
    99   90   99 1   
   100   90  100 1   
   101   90  101 1   
   102  102  103 1   
   103  102  110 1   
   104  103  104 1   
   105  103  106 1   
   106  103  111 1   
   107  104  105 2   
   108  104  114 1   
   109  106  107 1   
   110  106  112 1   
   111  106  113 1   
   112  107  108 1   
   113  107  109 1   
   114  114  115 1   
   115  114  125 1   
   116  115  116 1   
   117  115  118 1   
   118  115  126 1   
   119  116  117 2   
   120  116  134 1   
   121  118  119 1   
   122  118  127 1   
   123  118  128 1   
   124  119  120 ar  
   125  119  121 ar  
   126  120  122 ar  
   127  120  129 1   
   128  121  123 ar  
   129  121  130 1   
   130  122  124 ar  
   131  122  131 1   
   132  123  124 ar  
   133  123  132 1   
   134  124  133 1   
   135  134  135 1   
   136  134  140 1   
   137  135  136 1   
   138  135  138 1   
   139  135  141 1   
   140  136  137 2   
   141  136  148 1   
   142  138  139 1   
   143  138  142 1   
   144  138  143 1   
   145  139  140 1   
   146  139  144 1   
   147  139  145 1   
   148  140  146 1   
   149  140  147 1   
   150  148  149 1   
   151  148  157 1   
   152  149  150 1   
   153  149  152 1   
   154  149  158 1   
   155  150  151 2   
   156  150  163 1   
   157  152  153 1   
   158  152  159 1   
   159  152  160 1   
   160  153  154 1   
   161  153  161 1   
   162  153  162 1   
   163  154  155 1   
   164  154  156 1   
   165  163  164 1   
   166  163  168 1   
   167  164  165 1   
   168  164  166 1   
   169  164  167 1   
   170  170  171 1   
   171  170  172 1   
   172  173  174 1   
   173  173  175 1   
@<TRIPOS>SUBSTRUCTURE
     1 MOL         1 TEMP              0 ****  ****    0 ROOT
