@<TRIPOS>MOLECULE
MOL
  176   174     1     0     0
SMALL
resp


@<TRIPOS>ATOM
      1 C1          0.4200    3.6010    6.1400 c3        1 MOL     -0.340720
      2 C2          0.3450    3.0420    4.7520 c         1 MOL      0.737436
      3 O1          1.3240    3.0270    4.0250 o         1 MOL     -0.571416
      4 H1          1.3320    3.2520    6.6230 hc        1 MOL      0.085802
      5 H2          0.4280    4.6900    6.0930 hc        1 MOL      0.085802
      6 H3         -0.4450    3.2670    6.7130 hc        1 MOL      0.085802
      7 N1         -0.8660    2.6390    4.3120 n         1 MOL     -0.616368
      8 C3         -1.3260    2.4680    2.9380 c3        1 MOL      0.130524
      9 C4         -1.4750    3.8510    2.2870 c         1 MOL      0.534541
     10 O2         -1.9810    4.8550    2.8330 o         1 MOL     -0.559556
     11 C5         -2.6060    1.6220    2.9760 c3        1 MOL     -0.198698
     12 C6         -2.9250    0.9820    1.5900 c         1 MOL      0.915425
     13 O3         -2.9380    1.6900    0.5530 o         1 MOL     -0.819192
     14 O4         -3.1490   -0.2240    1.5870 o         1 MOL     -0.819192
     15 H4         -1.5830    2.5170    5.0100 hn        1 MOL      0.307490
     16 H5         -0.5280    1.9300    2.4210 h1        1 MOL      0.022266
     17 H6         -3.4160    2.2170    3.3970 hc        1 MOL      0.050583
     18 H7         -2.3760    0.8070    3.6580 hc        1 MOL      0.050583
     19 N2         -0.8800    3.9390    1.0830 n         1 MOL     -0.349309
     20 C7         -1.0080    5.1580    0.2190 c3        1 MOL      0.006575
     21 C8         -2.3850    5.3210   -0.5730 c         1 MOL      0.536510
     22 O5         -2.6260    6.4300   -1.0340 o         1 MOL     -0.600232
     23 C9          0.2070    5.2420   -0.7500 c3        1 MOL     -0.059454
     24 C10         0.5970    6.6880   -1.0940 c3        1 MOL     -0.122280
     25 C11         1.7850    6.7660   -2.0210 c3        1 MOL      0.097595
     26 C12         1.9990    8.1210   -2.5500 c3        1 MOL     -0.147135
     27 N3          0.8050    8.6380   -3.3010 n4        1 MOL     -0.292404
     28 H8         -0.3350    3.1410    0.7990 hn        1 MOL      0.274807
     29 H9         -0.9150    6.0470    0.8440 h1        1 MOL      0.079397
     30 H10        -0.0280    4.6940   -1.6630 hc        1 MOL      0.030438
     31 H11         1.0320    4.6670   -0.3260 hc        1 MOL      0.030438
     32 H12         0.9540    7.1970   -0.2020 hc        1 MOL      0.056958
     33 H13        -0.2410    7.3650   -1.2790 hc        1 MOL      0.056958
     34 H14         1.6020    6.0550   -2.8390 hc        1 MOL      0.037385
     35 H15         2.6330    6.3650   -1.4670 hc        1 MOL      0.037385
     36 H16         2.9370    8.1210   -3.1110 hx        1 MOL      0.126524
     37 H17         2.1330    8.7530   -1.6730 hx        1 MOL      0.126524
     38 H18        -0.0430    8.8400   -2.7830 hn        1 MOL      0.311978
     39 H19         1.0220    9.5830   -3.5960 hn        1 MOL      0.311978
     40 H20         0.6130    8.1930   -4.1910 hn        1 MOL      0.311978
     41 N4         -3.1530    4.3410   -0.7320 n         1 MOL     -0.377517
     42 C13        -4.2420    4.1980   -1.6960 c3        1 MOL      0.182084
     43 C14        -5.5230    3.5720   -1.0810 c         1 MOL      0.357588
     44 O6         -6.6170    3.6620   -1.6670 o         1 MOL     -0.545871
     45 C15        -3.7930    3.3560   -2.8710 c3        1 MOL     -0.318430
     46 C16        -3.2400    2.0030   -2.4390 c         1 MOL      0.965940
     47 O7         -3.9870    1.0960   -2.0420 o         1 MOL     -0.857399
     48 O8         -2.0270    1.7420   -2.5560 o         1 MOL     -0.857399
     49 H21        -2.8090    3.4510   -0.4050 hn        1 MOL      0.253327
     50 H22        -4.5150    5.2040   -2.0110 h1        1 MOL      0.066999
     51 H23        -2.9920    3.9410   -3.3330 hc        1 MOL      0.080548
     52 H24        -4.5780    3.1410   -3.6010 hc        1 MOL      0.080548
     53 N5         -5.4180    2.7780   -0.0050 n         1 MOL     -0.083575
     54 C17        -6.5130    2.1970    0.7500 c3        1 MOL     -0.344681
     55 C18        -6.9050    0.8020    0.3850 c         1 MOL      0.633668
     56 O9         -7.8100    0.3030    1.0720 o         1 MOL     -0.584937
     57 H25        -4.4760    2.5850    0.2840 hn        1 MOL      0.107624
     58 H26        -7.3440    2.8500    0.4830 h1        1 MOL      0.148783
     59 H27        -6.1640    2.1210    1.7850 h1        1 MOL      0.148783
     60 N6         -6.3440    0.0590   -0.6400 n         1 MOL     -0.321953
     61 C19        -6.8030   -1.2620   -0.9960 c3        1 MOL     -0.039440
     62 C20        -6.6720   -2.3380    0.1090 c         1 MOL      0.445471
     63 O10        -7.2190   -3.4290   -0.0540 o         1 MOL     -0.536832
     64 C21        -6.1090   -1.6270   -2.3680 c3        1 MOL     -0.355649
     65 C22        -4.7250   -2.3280   -2.1750 c         1 MOL      0.737332
     66 N7         -4.3600   -3.2580   -3.0780 n         1 MOL     -0.766804
     67 O11        -3.9180   -1.9570   -1.3660 o         1 MOL     -0.614518
     68 H28        -5.4750    0.3560   -1.0770 hn        1 MOL      0.284253
     69 H29        -7.8580   -1.1140   -1.2200 h1        1 MOL      0.120475
     70 H30        -5.9170   -0.7150   -2.9240 hc        1 MOL      0.133510
     71 H31        -6.6770   -2.2270   -3.0790 hc        1 MOL      0.133510
     72 H32        -4.9140   -3.5190   -3.8680 hn        1 MOL      0.350650
     73 H33        -3.3930   -3.5350   -2.9770 hn        1 MOL      0.350650
     74 N8         -5.9370   -2.0730    1.1980 n         1 MOL     -0.175649
     75 C23        -5.7630   -3.0370    2.3460 c3        1 MOL     -0.257894
     76 C24        -4.5110   -3.8660    2.3400 c         1 MOL      0.558263
     77 O12        -4.3300   -4.8160    3.1570 o         1 MOL     -0.577329
     78 H34        -5.4240   -1.2120    1.2970 hn        1 MOL      0.264992
     79 H35        -6.5570   -3.7830    2.2650 h1        1 MOL      0.135692
     80 H36        -5.8340   -2.5290    3.3000 h1        1 MOL      0.135692
     81 N9         -3.4470   -3.5290    1.5700 n         1 MOL     -0.301614
     82 C25        -2.0730   -4.1570    1.7080 c3        1 MOL      0.074867
     83 C26        -0.9580   -3.0700    1.4870 c         1 MOL      0.435358
     84 O13        -1.1940   -2.2400    0.5850 o         1 MOL     -0.451830
     85 C27        -1.8550   -5.5550    0.9860 c3        1 MOL     -0.164534
     86 C28        -1.8410   -5.5320   -0.5510 ca        1 MOL      0.032635
     87 C29        -0.6110   -5.1590   -1.2100 ca        1 MOL     -0.132758
     88 C30        -2.9500   -5.8900   -1.3570 ca        1 MOL     -0.132758
     89 C31        -0.5430   -5.1720   -2.6030 ca        1 MOL     -0.275610
     90 C32        -2.9680   -5.7580   -2.7740 ca        1 MOL     -0.275610
     91 C33        -1.7210   -5.4080   -3.3660 ca        1 MOL      0.335732
     92 O14        -1.6650   -5.2270   -4.6740 oh        1 MOL     -0.523392
     93 H37        -3.5790   -2.8240    0.8530 hn        1 MOL      0.210975
     94 H38        -2.0260   -4.4500    2.7500 h1        1 MOL      0.066403
     95 H39        -2.6600   -6.2200    1.3020 hc        1 MOL      0.082996
     96 H40        -0.8840   -5.9650    1.2590 hc        1 MOL      0.082996
     97 H41         0.2550   -4.9380   -0.6060 ha        1 MOL      0.142171
     98 H42        -3.8640   -6.2510   -0.9120 ha        1 MOL      0.142171
     99 H43         0.3960   -4.8690   -3.0440 ha        1 MOL      0.139653
    100 H44        -3.8550   -5.9620   -3.3550 ha        1 MOL      0.139653
    101 H45        -2.5010   -5.3450   -5.1330 ho        1 MOL      0.387397
    102 N10         0.2350   -3.2340    2.0910 n         1 MOL     -0.369265
    103 C34         1.4390   -2.4980    1.6690 c3        1 MOL     -0.042837
    104 C35         2.4850   -3.4930    1.0840 c         1 MOL      0.393346
    105 O15         2.4790   -4.7270    1.3030 o         1 MOL     -0.511106
    106 C36         2.0880   -1.6820    2.8310 c3        1 MOL      0.305316
    107 C37         2.3750   -2.4820    4.0730 c3        1 MOL      0.062905
    108 C38         1.3640   -0.3730    3.0820 c3        1 MOL     -0.469011
    109 C39         3.5350   -1.9740    5.0770 c3        1 MOL     -0.151794
    110 H46         0.3060   -3.8880    2.8660 hn        1 MOL      0.254796
    111 H47         1.1910   -1.8150    0.8590 h1        1 MOL      0.156376
    112 H48         3.0480   -1.3590    2.4200 hc        1 MOL     -0.145897
    113 H49         2.7790   -3.4670    3.8270 hc        1 MOL     -0.012364
    114 H50         1.4400   -2.6410    4.6140 hc        1 MOL     -0.012364
    115 H51         1.5080    0.2760    2.2110 hc        1 MOL      0.121443
    116 H52         0.3050   -0.6200    3.1640 hc        1 MOL      0.121443
    117 H53         1.7620    0.2680    3.8690 hc        1 MOL      0.121443
    118 H54         3.3360   -0.9310    5.3010 hc        1 MOL      0.038796
    119 H55         3.5390   -2.5450    6.0130 hc        1 MOL      0.038796
    120 H56         4.5330   -2.0900    4.6530 hc        1 MOL      0.038796
    121 N11         3.3720   -2.9240    0.2420 n         1 MOL     -0.360488
    122 C40         4.6400   -3.4590   -0.3200 c3        1 MOL      0.391483
    123 C41         5.8070   -2.5380   -0.0030 c         1 MOL      0.080815
    124 O16         5.6140   -1.4180    0.4180 o         1 MOL     -0.146725
    125 C42         4.6650   -3.7500   -1.8280 c3        1 MOL     -0.002500
    126 O17         3.4230   -4.3590   -2.0980 oh        1 MOL     -0.519536
    127 H57         3.2250   -1.9320    0.1280 hn        1 MOL      0.262143
    128 H58         4.7600   -4.4480    0.1280 h1        1 MOL      0.011860
    129 H59         5.4850   -4.3820   -2.1420 h1        1 MOL      0.048080
    130 H60         4.6720   -2.8490   -2.4520 h1        1 MOL      0.048080
    131 H61         3.5800   -5.2750   -2.3320 ho        1 MOL      0.391156
    132 N12         7.0510   -2.9910   -0.2050 n         1 MOL     -0.424532
    133 C43         8.3350   -2.2980    0.1980 c3        1 MOL      0.265920
    134 C44         8.4020   -0.8740   -0.4860 c         1 MOL      0.414331
    135 O18         8.5800    0.1090    0.1790 o         1 MOL     -0.487303
    136 C45         9.5300   -3.2810   -0.1060 c3        1 MOL     -0.277033
    137 H62         7.1290   -3.8850   -0.6930 hn        1 MOL      0.267637
    138 H63         8.3820   -2.2220    1.2850 h1        1 MOL      0.061704
    139 H64         9.8350   -3.0990   -1.1420 hc        1 MOL      0.080925
    140 H65        10.3970   -2.9690    0.4840 hc        1 MOL      0.080925
    141 H66         9.1820   -4.3100   -0.0590 hc        1 MOL      0.080925
    142 N13         8.1330   -0.6880   -1.8300 n         1 MOL     -0.335368
    143 C46         8.1300    0.7200   -2.3800 c3        1 MOL      0.010054
    144 C47         7.0430    1.6210   -1.7870 c         1 MOL      0.592123
    145 O19         7.2430    2.7900   -1.5830 o         1 MOL     -0.540941
    146 C48         8.0760    0.6340   -3.8890 c3        1 MOL     -0.281086
    147 H67         8.0630   -1.4950   -2.4420 hn        1 MOL      0.222212
    148 H68         9.0850    1.1640   -2.1090 h1        1 MOL      0.105471
    149 H69         8.8690    0.0070   -4.3010 hc        1 MOL      0.086234
    150 H70         7.1090    0.2000   -4.1680 hc        1 MOL      0.086234
    151 H71         8.1280    1.6350   -4.3080 hc        1 MOL      0.086234
    152 N14         5.9060    1.0400   -1.3600 n         1 MOL     -0.390566
    153 C49         4.8480    1.8350   -0.7870 c3        1 MOL      0.014948
    154 C50         5.0560    2.1050    0.7130 c         1 MOL      0.467377
    155 O20         4.7350    3.2040    1.1420 o         1 MOL     -0.541290
    156 C51         3.5990    0.9350   -0.9450 c3        1 MOL     -0.194438
    157 C52         2.3260    1.5490   -0.3580 c3        1 MOL     -0.095679
    158 C53         1.0340    0.5930   -0.3460 c         1 MOL      0.686388
    159 O21         0.0340    1.0240    0.3090 o         1 MOL     -0.754222
    160 O22         0.8940   -0.4770   -1.0100 o         1 MOL     -0.754222
    161 H72         5.8950    0.0340   -1.2350 hn        1 MOL      0.164801
    162 H73         4.6880    2.7920   -1.2740 h1        1 MOL      0.095772
    163 H74         3.7580   -0.0400   -0.4890 hc        1 MOL      0.056455
    164 H75         3.3560    0.7290   -1.9860 hc        1 MOL      0.056455
    165 H76         1.9790    2.4710   -0.8440 hc        1 MOL      0.069475
    166 H77         2.4630    1.8170    0.6850 hc        1 MOL      0.069475
    167 N15         5.6260    1.1710    1.4930 n         1 MOL      0.023733
    168 C54         6.2170    1.3790    2.7800 c3        1 MOL     -0.183687
    169 H78         7.1950    1.8460    2.6580 h1        1 MOL      0.073380
    170 H79         5.5760    2.0290    3.3750 h1        1 MOL      0.073380
    171 H80         6.3340    0.4220    3.2870 h1        1 MOL      0.073380
    172 H81         5.7480    0.2200    1.1500 hn        1 MOL     -0.007160
    173 Ca1        -1.8830   -0.2510   -0.9980 Ca        1 MOL      1.760348
    174 O23        -1.2640   -1.9250   -2.9940 oh        1 MOL     -0.882917
    175 H82        -1.4750   -1.9650   -3.9260 ho        1 MOL      0.430915
    176 H83        -0.3030   -1.9660   -2.9670 ho        1 MOL      0.430915
@<TRIPOS>BOND
     1    1    2 1   
     2    1    4 1   
     3    1    5 1   
     4    1    6 1   
     5    2    3 2   
     6    2    7 1   
     7    7    8 1   
     8    7   15 1   
     9    8    9 1   
    10    8   11 1   
    11    8   16 1   
    12    9   10 2   
    13    9   19 1   
    14   11   12 1   
    15   11   17 1   
    16   11   18 1   
    17   12   13 1   
    18   12   14 1   
    19   19   20 1   
    20   19   28 1   
    21   20   21 1   
    22   20   23 1   
    23   20   29 1   
    24   21   22 2   
    25   21   41 1   
    26   23   24 1   
    27   23   30 1   
    28   23   31 1   
    29   24   25 1   
    30   24   32 1   
    31   24   33 1   
    32   25   26 1   
    33   25   34 1   
    34   25   35 1   
    35   26   27 1   
    36   26   36 1   
    37   26   37 1   
    38   27   38 1   
    39   27   39 1   
    40   27   40 1   
    41   41   42 1   
    42   41   49 1   
    43   42   43 1   
    44   42   45 1   
    45   42   50 1   
    46   43   44 2   
    47   43   53 1   
    48   45   46 1   
    49   45   51 1   
    50   45   52 1   
    51   46   47 1   
    52   46   48 1   
    53   53   54 1   
    54   53   57 1   
    55   54   55 1   
    56   54   58 1   
    57   54   59 1   
    58   55   56 2   
    59   55   60 1   
    60   60   61 1   
    61   60   68 1   
    62   61   62 1   
    63   61   64 1   
    64   61   69 1   
    65   62   63 2   
    66   62   74 1   
    67   64   65 1   
    68   64   70 1   
    69   64   71 1   
    70   65   66 1   
    71   65   67 2   
    72   66   72 1   
    73   66   73 1   
    74   74   75 1   
    75   74   78 1   
    76   75   76 1   
    77   75   79 1   
    78   75   80 1   
    79   76   77 2   
    80   76   81 1   
    81   81   82 1   
    82   81   93 1   
    83   82   83 1   
    84   82   85 1   
    85   82   94 1   
    86   83   84 2   
    87   83  102 1   
    88   85   86 1   
    89   85   95 1   
    90   85   96 1   
    91   86   87 ar  
    92   86   88 ar  
    93   87   89 ar  
    94   87   97 1   
    95   88   90 ar  
    96   88   98 1   
    97   89   91 ar  
    98   89   99 1   
    99   90   91 ar  
   100   90  100 1   
   101   91   92 1   
   102   92  101 1   
   103  102  103 1   
   104  102  110 1   
   105  103  104 1   
   106  103  106 1   
   107  103  111 1   
   108  104  105 2   
   109  104  121 1   
   110  106  107 1   
   111  106  108 1   
   112  106  112 1   
   113  107  109 1   
   114  107  113 1   
   115  107  114 1   
   116  108  115 1   
   117  108  116 1   
   118  108  117 1   
   119  109  118 1   
   120  109  119 1   
   121  109  120 1   
   122  121  122 1   
   123  121  127 1   
   124  122  123 1   
   125  122  125 1   
   126  122  128 1   
   127  123  124 2   
   128  123  132 1   
   129  125  126 1   
   130  125  129 1   
   131  125  130 1   
   132  126  131 1   
   133  132  133 1   
   134  132  137 1   
   135  133  134 1   
   136  133  136 1   
   137  133  138 1   
   138  134  135 2   
   139  134  142 1   
   140  136  139 1   
   141  136  140 1   
   142  136  141 1   
   143  142  143 1   
   144  142  147 1   
   145  143  144 1   
   146  143  146 1   
   147  143  148 1   
   148  144  145 2   
   149  144  152 1   
   150  146  149 1   
   151  146  150 1   
   152  146  151 1   
   153  152  153 1   
   154  152  161 1   
   155  153  154 1   
   156  153  156 1   
   157  153  162 1   
   158  154  155 2   
   159  154  167 1   
   160  156  157 1   
   161  156  163 1   
   162  156  164 1   
   163  157  158 1   
   164  157  165 1   
   165  157  166 1   
   166  158  159 1   
   167  158  160 1   
   168  167  168 1   
   169  167  172 1   
   170  168  169 1   
   171  168  170 1   
   172  168  171 1   
   173  174  175 1   
   174  174  176 1   
@<TRIPOS>SUBSTRUCTURE
     1 MOL         1 TEMP              0 ****  ****    0 ROOT
