@<TRIPOS>MOLECULE
MOL
  189   185     1     0     0
SMALL
resp


@<TRIPOS>ATOM
      1 C1         -0.1320    1.9740    6.1150 c3        1 MOL     -0.331341
      2 C2         -0.6070    1.7770    4.6570 c         1 MOL      0.736811
      3 O1          0.2310    1.7220    3.7640 o         1 MOL     -0.637932
      4 H1          0.3660    1.0680    6.4600 hc        1 MOL      0.082055
      5 H2          0.5650    2.8110    6.1600 hc        1 MOL      0.082055
      6 H3         -0.9910    2.1810    6.7530 hc        1 MOL      0.082055
      7 N1         -1.8840    1.4870    4.4250 n         1 MOL     -0.692631
      8 C3         -2.3680    1.3820    3.0680 c3        1 MOL      0.160674
      9 C4         -2.5980    2.8550    2.4790 c         1 MOL      0.596456
     10 O2         -3.4970    3.5720    2.8660 o         1 MOL     -0.558794
     11 C5         -3.4700    0.2840    2.9270 c3        1 MOL     -0.261213
     12 C6         -3.9940    0.2600    1.5300 c         1 MOL      0.620707
     13 O3         -5.0650   -0.3390    1.3530 o         1 MOL     -0.586064
     14 O4         -3.3660    0.7660    0.5680 o         1 MOL     -0.586064
     15 H4         -2.5230    1.3420    5.1920 hn        1 MOL      0.361404
     16 H5         -1.5600    1.0270    2.4260 h1        1 MOL      0.027721
     17 H6         -4.2850    0.4310    3.6280 hc        1 MOL      0.077654
     18 H7         -3.0300   -0.6940    3.1410 hc        1 MOL      0.077654
     19 N2         -1.6360    3.1940    1.5780 n         1 MOL     -0.436260
     20 C7         -1.5070    4.5560    0.9790 c3        1 MOL     -0.009365
     21 C8         -2.7370    4.9180    0.1850 c         1 MOL      0.508441
     22 O5         -2.9620    6.0860   -0.0680 o         1 MOL     -0.596389
     23 C9         -0.2350    4.6890    0.1710 c3        1 MOL      0.188424
     24 C10         0.9160    5.2080    1.0140 c3        1 MOL     -0.275550
     25 C11         0.8710    6.7250    1.2390 c3        1 MOL      0.026495
     26 C12         1.1830    7.5640   -0.0340 c3        1 MOL      0.034236
     27 N3          1.0770    9.0150    0.2150 n4        1 MOL     -0.291804
     28 H8         -1.0780    2.4000    1.3100 hn        1 MOL      0.382994
     29 H9         -1.5670    5.2790    1.8000 h1        1 MOL      0.069191
     30 H10        -0.4850    5.2890   -0.7040 hc        1 MOL      0.003796
     31 H11         0.0490    3.7160   -0.2240 hc        1 MOL      0.003796
     32 H12         1.8070    4.9260    0.4510 hc        1 MOL      0.102107
     33 H13         0.9060    4.7560    2.0000 hc        1 MOL      0.102107
     34 H14         1.7090    6.8820    1.9210 hc        1 MOL      0.016941
     35 H15        -0.0040    7.1790    1.6910 hc        1 MOL      0.016941
     36 H16         0.4380    7.2820   -0.7750 hx        1 MOL      0.065819
     37 H17         2.1630    7.2850   -0.4390 hx        1 MOL      0.065819
     38 H18         1.1910    9.5490   -0.6360 hn        1 MOL      0.308788
     39 H19         0.2090    9.3130    0.6360 hn        1 MOL      0.308788
     40 H20         1.7620    9.3500    0.8740 hn        1 MOL      0.308788
     41 N4         -3.3690    3.9260   -0.4150 n         1 MOL      0.020795
     42 C13        -4.4060    4.0190   -1.4790 c3        1 MOL     -0.047871
     43 C14        -5.8550    3.5940   -1.0940 c         1 MOL      0.485609
     44 O6         -6.8130    4.0380   -1.7160 o         1 MOL     -0.546016
     45 C15        -3.9140    3.1080   -2.6230 c3        1 MOL      0.007576
     46 C16        -2.3590    3.2310   -2.7610 c         1 MOL      0.760825
     47 O7         -1.7050    2.4070   -2.1400 o         1 MOL     -0.718850
     48 O8         -1.9200    4.0810   -3.5170 o         1 MOL     -0.718850
     49 H21        -3.1180    2.9730   -0.1860 hn        1 MOL     -0.389295
     50 H22        -4.4260    5.0390   -1.8590 h1        1 MOL      0.072425
     51 H23        -4.4870    3.4040   -3.5050 hc        1 MOL     -0.017493
     52 H24        -4.1500    2.0460   -2.5230 hc        1 MOL     -0.017493
     53 N5         -5.9850    2.6850   -0.2040 n         1 MOL     -0.338780
     54 C17        -7.2760    2.0460    0.3110 c3        1 MOL     -0.107333
     55 C18        -7.6660    0.7020   -0.5450 c         1 MOL      0.479310
     56 O9         -8.8340    0.5860   -0.9060 o         1 MOL     -0.572783
     57 H25        -5.1840    2.1340    0.0620 hn        1 MOL      0.338270
     58 H26        -8.0310    2.8280    0.3890 h1        1 MOL      0.093469
     59 H27        -7.0980    1.6440    1.3130 h1        1 MOL      0.093469
     60 N6         -6.7000   -0.1350   -0.9100 n         1 MOL     -0.114408
     61 C19        -6.9930   -1.2840   -1.7900 c3        1 MOL      0.038073
     62 C20        -6.9680   -2.5770   -0.9870 c         1 MOL      0.320581
     63 O10        -7.1420   -3.6110   -1.5730 o         1 MOL     -0.515446
     64 C21        -6.0090   -1.2330   -3.0020 c3        1 MOL     -0.210498
     65 C22        -4.5330   -1.2540   -2.5610 c         1 MOL      0.874842
     66 O11        -3.6870   -0.5080   -3.1580 o         1 MOL     -0.819725
     67 O12        -4.0430   -1.9810   -1.6860 o         1 MOL     -0.819725
     68 H28        -5.7710   -0.0800   -0.5120 hn        1 MOL      0.044034
     69 H29        -8.0010   -1.1970   -2.1860 h1        1 MOL      0.107761
     70 H30        -6.1570   -0.2480   -3.4330 hc        1 MOL      0.069753
     71 H31        -6.2070   -2.0400   -3.7020 hc        1 MOL      0.069753
     72 N7         -6.5850   -2.5630    0.2580 n         1 MOL     -0.126775
     73 C23        -6.5740   -3.7690    1.1310 c3        1 MOL     -0.165244
     74 C24        -5.2200   -4.5060    0.9400 c         1 MOL      0.592734
     75 O13        -5.2360   -5.6850    1.3140 o         1 MOL     -0.607129
     76 H32        -6.3540   -1.6720    0.6800 hn        1 MOL      0.150666
     77 H33        -7.3210   -4.4570    0.7390 h1        1 MOL      0.101156
     78 H34        -6.7080   -3.4690    2.1700 h1        1 MOL      0.101156
     79 N8         -4.1600   -3.9770    0.3860 n         1 MOL     -0.349363
     80 C25        -2.7640   -4.6260    0.2010 c3        1 MOL     -0.063859
     81 C26        -1.7120   -3.5790    0.6560 c         1 MOL      0.588335
     82 O14        -1.9190   -2.3580    0.6480 o         1 MOL     -0.645325
     83 C27        -2.4700   -5.2230   -1.1300 c3        1 MOL      0.583551
     84 C28        -3.1300   -6.6020   -1.2800 c3        1 MOL     -0.581560
     85 O15        -2.9050   -4.4410   -2.2080 oh        1 MOL     -0.743910
     86 H35        -4.1950   -3.0100    0.0940 hn        1 MOL      0.281960
     87 H36        -2.7710   -5.4810    0.8860 h1        1 MOL      0.065350
     88 H37        -1.3910   -5.3380   -1.2290 h1        1 MOL     -0.083680
     89 H38        -3.2440   -3.5890   -1.9080 ho        1 MOL      0.514618
     90 H39        -3.2780   -6.8940   -2.3300 hc        1 MOL      0.154166
     91 H40        -2.5440   -7.3100   -0.7030 hc        1 MOL      0.154166
     92 H41        -4.1400   -6.6550   -0.8960 hc        1 MOL      0.154166
     93 N9         -0.5030   -4.1160    0.9540 n         1 MOL     -0.516954
     94 C29         0.7590   -3.4060    1.3050 c3        1 MOL     -0.032422
     95 C30         1.8040   -3.9190    0.3240 c         1 MOL      0.498481
     96 O16         2.3000   -5.0180    0.3930 o         1 MOL     -0.514959
     97 C31         1.0650   -3.8410    2.7980 c3        1 MOL     -0.005934
     98 C32        -0.1680   -3.7390    3.8140 c3        1 MOL     -0.032564
     99 C33         2.2970   -3.1590    3.3790 c3        1 MOL     -0.417447
    100 C34        -0.7110   -2.2920    3.8960 c3        1 MOL     -0.266408
    101 H42        -0.5340   -5.1150    0.8140 hn        1 MOL      0.291781
    102 H43         0.6240   -2.3210    1.2630 h1        1 MOL      0.241904
    103 H44         1.2740   -4.9060    2.8310 hc        1 MOL      0.031041
    104 H45         0.0890   -4.2060    4.7620 hc        1 MOL      0.038644
    105 H46        -1.0030   -4.3460    3.4420 hc        1 MOL      0.038644
    106 H47         2.0250   -2.1760    3.7550 hc        1 MOL      0.114343
    107 H48         2.6070   -3.7280    4.2620 hc        1 MOL      0.114343
    108 H49         3.0660   -3.0970    2.6050 hc        1 MOL      0.114343
    109 H50        -1.5270   -2.3590    4.6050 hc        1 MOL      0.100640
    110 H51         0.0830   -1.6230    4.2440 hc        1 MOL      0.100640
    111 H52        -0.9660   -1.9530    2.8910 hc        1 MOL      0.100640
    112 N10         2.1400   -3.0460   -0.6120 n         1 MOL     -0.224282
    113 C35         3.4510   -3.0770   -1.3960 c3        1 MOL     -0.045327
    114 C36         4.7590   -2.8590   -0.6230 c         1 MOL      0.227260
    115 O17         4.8010   -2.3280    0.5170 o         1 MOL     -0.157278
    116 C37         3.3870   -2.1240   -2.6050 c3        1 MOL      0.448741
    117 C38         2.3570   -2.4770   -3.6620 c3        1 MOL     -0.682791
    118 O18         3.0090   -0.8100   -2.2270 oh        1 MOL     -0.674440
    119 H53         1.5800   -2.2050   -0.6290 hn        1 MOL      0.125146
    120 H54         3.4950   -4.0890   -1.8150 h1        1 MOL      0.068488
    121 H55         4.3530   -2.0790   -3.0900 h1        1 MOL      0.020499
    122 H56         2.1620   -0.8720   -1.7790 ho        1 MOL      0.469085
    123 H57         2.4800   -1.7860   -4.4920 hc        1 MOL      0.163589
    124 H58         2.4680   -3.5310   -3.9250 hc        1 MOL      0.163589
    125 H59         1.3700   -2.4180   -3.2210 hc        1 MOL      0.163589
    126 N11         5.8500   -3.0210   -1.3660 n         1 MOL     -0.142477
    127 C39         7.2120   -2.7670   -0.7800 c3        1 MOL     -0.318700
    128 C40         7.5530   -1.3550   -0.3950 c         1 MOL      0.397090
    129 O19         8.3970   -1.0980    0.4360 o         1 MOL     -0.457212
    130 C41         8.3560   -3.1700   -1.7320 c3        1 MOL      0.399422
    131 C42         8.2990   -4.7410   -1.8580 c3        1 MOL     -0.377442
    132 O20         8.1780   -2.7880   -2.9840 oh        1 MOL     -0.606873
    133 H60         5.6640   -3.2370   -2.3290 hn        1 MOL      0.233344
    134 H61         7.3650   -3.2580    0.1840 h1        1 MOL      0.188841
    135 H62         9.3240   -2.8410   -1.3880 h1        1 MOL      0.030227
    136 H63         9.0520   -2.7060   -3.3810 ho        1 MOL      0.408610
    137 H64         9.1140   -5.0850   -2.5060 hc        1 MOL      0.092296
    138 H65         8.4240   -5.2250   -0.8800 hc        1 MOL      0.092296
    139 H66         7.3250   -4.9400   -2.2950 hc        1 MOL      0.092296
    140 N12         6.8420   -0.3520   -0.9870 n         1 MOL     -0.379207
    141 C43         6.9070    1.0760   -0.4560 c3        1 MOL      0.005610
    142 C44         6.1380    1.2370    0.8860 c         1 MOL      0.391236
    143 O21         6.6700    1.7730    1.7950 o         1 MOL     -0.487704
    144 C45         6.3330    2.0280   -1.4700 c3        1 MOL     -0.040155
    145 C46         6.6140    3.5320   -1.0950 c3        1 MOL     -0.212651
    146 C47         5.8510    4.3060   -2.2470 c3        1 MOL      0.068560
    147 C48         6.6280    4.3850   -3.5610 c3        1 MOL     -0.128099
    148 N13         7.9130    5.1090   -3.4560 n4        1 MOL     -0.227003
    149 H67         6.2880   -0.5160   -1.8200 hn        1 MOL      0.244486
    150 H68         7.9320    1.3020   -0.1900 h1        1 MOL      0.086536
    151 H69         5.2570    1.9020   -1.3590 hc        1 MOL      0.035647
    152 H70         6.6820    1.7270   -2.4520 hc        1 MOL      0.035647
    153 H71         7.6700    3.7850   -1.0590 hc        1 MOL      0.076266
    154 H72         6.0660    3.6950   -0.1610 hc        1 MOL      0.076266
    155 H73         5.5430    5.2960   -1.9340 hc        1 MOL      0.032265
    156 H74         4.9300    3.7430   -2.3970 hc        1 MOL      0.032265
    157 H75         5.9180    4.8030   -4.2780 hx        1 MOL      0.129683
    158 H76         6.8900    3.3830   -3.9160 hx        1 MOL      0.129683
    159 H77         8.6100    4.7070   -2.8400 hn        1 MOL      0.298892
    160 H78         8.3310    5.0690   -4.3790 hn        1 MOL      0.298892
    161 H79         7.9020    6.0840   -3.2080 hn        1 MOL      0.298892
    162 N14         4.9340    0.6520    0.9050 n         1 MOL     -0.034357
    163 C49         4.0660    0.7380    2.0160 c3        1 MOL     -0.223037
    164 C50         4.6090   -0.0310    3.2280 c         1 MOL      0.541573
    165 O22         4.6600    0.5330    4.2870 o         1 MOL     -0.547617
    166 C51         2.6810    0.2710    1.5430 c3        1 MOL      0.198636
    167 C52         2.0190    1.2570    0.5820 c3        1 MOL     -0.114242
    168 C53         0.7560    0.5600    0.0890 c         1 MOL      0.533674
    169 O23         0.8010   -0.3800   -0.7500 o         1 MOL     -0.650242
    170 O24        -0.3700    0.9500    0.4110 o         1 MOL     -0.650242
    171 H80         4.6700    0.1340    0.0670 hn        1 MOL      0.165423
    172 H81         3.9980    1.7700    2.3750 h1        1 MOL      0.091650
    173 H82         2.0410    0.1690    2.4180 hc        1 MOL      0.006051
    174 H83         2.7900   -0.7220    1.1190 hc        1 MOL      0.006051
    175 H84         2.7840    1.3380   -0.1950 hc        1 MOL      0.004574
    176 H85         1.8890    2.2770    0.9300 hc        1 MOL      0.004574
    177 N15         5.0710   -1.2430    2.9930 n         1 MOL     -0.033318
    178 C54         5.6830   -1.9970    4.0840 c3        1 MOL     -0.581580
    179 H86         6.1370   -2.9050    3.6880 h1        1 MOL      0.181929
    180 H87         6.4500   -1.3880    4.5620 h1        1 MOL      0.181929
    181 H88         4.9200   -2.2620    4.8160 h1        1 MOL      0.181929
    182 H89         4.8590   -1.6980    2.1140 hn        1 MOL      0.007464
    183 Ca1        -1.8310   -0.0990   -1.4160 Ca        1 MOL      1.803993
    184 O25        -1.0070   -2.5280   -2.5590 oh        1 MOL     -0.862634
    185 H90        -1.4930   -3.3490   -2.6850 ho        1 MOL      0.408908
    186 H91        -0.4050   -2.4980   -3.3070 ho        1 MOL      0.408908
    187 O26        -0.7420   -0.0030   -3.8950 oh        1 MOL     -0.862634
    188 H92        -0.5320   -0.7600   -4.4330 ho        1 MOL      0.408908
    189 H93        -1.2820    0.5510   -4.4540 ho        1 MOL      0.408908
@<TRIPOS>BOND
     1    1    2 1   
     2    1    4 1   
     3    1    5 1   
     4    1    6 1   
     5    2    3 2   
     6    2    7 1   
     7    7    8 1   
     8    7   15 1   
     9    8    9 1   
    10    8   11 1   
    11    8   16 1   
    12    9   10 2   
    13    9   19 1   
    14   11   12 1   
    15   11   17 1   
    16   11   18 1   
    17   12   13 1   
    18   12   14 1   
    19   19   20 1   
    20   19   28 1   
    21   20   21 1   
    22   20   23 1   
    23   20   29 1   
    24   21   22 2   
    25   21   41 1   
    26   23   24 1   
    27   23   30 1   
    28   23   31 1   
    29   24   25 1   
    30   24   32 1   
    31   24   33 1   
    32   25   26 1   
    33   25   34 1   
    34   25   35 1   
    35   26   27 1   
    36   26   36 1   
    37   26   37 1   
    38   27   38 1   
    39   27   39 1   
    40   27   40 1   
    41   41   42 1   
    42   41   49 1   
    43   42   43 1   
    44   42   45 1   
    45   42   50 1   
    46   43   44 2   
    47   43   53 1   
    48   45   46 1   
    49   45   51 1   
    50   45   52 1   
    51   46   47 1   
    52   46   48 1   
    53   53   54 1   
    54   53   57 1   
    55   54   55 1   
    56   54   58 1   
    57   54   59 1   
    58   55   56 2   
    59   55   60 1   
    60   60   61 1   
    61   60   68 1   
    62   61   62 1   
    63   61   64 1   
    64   61   69 1   
    65   62   63 2   
    66   62   72 1   
    67   64   65 1   
    68   64   70 1   
    69   64   71 1   
    70   65   66 1   
    71   65   67 1   
    72   72   73 1   
    73   72   76 1   
    74   73   74 1   
    75   73   77 1   
    76   73   78 1   
    77   74   75 2   
    78   74   79 1   
    79   79   80 1   
    80   79   86 1   
    81   80   81 1   
    82   80   83 1   
    83   80   87 1   
    84   81   82 2   
    85   81   93 1   
    86   83   84 1   
    87   83   85 1   
    88   83   88 1   
    89   84   90 1   
    90   84   91 1   
    91   84   92 1   
    92   85   89 1   
    93   93   94 1   
    94   93  101 1   
    95   94   95 1   
    96   94   97 1   
    97   94  102 1   
    98   95   96 2   
    99   95  112 1   
   100   97   98 1   
   101   97   99 1   
   102   97  103 1   
   103   98  100 1   
   104   98  104 1   
   105   98  105 1   
   106   99  106 1   
   107   99  107 1   
   108   99  108 1   
   109  100  109 1   
   110  100  110 1   
   111  100  111 1   
   112  112  113 1   
   113  112  119 1   
   114  113  114 1   
   115  113  116 1   
   116  113  120 1   
   117  114  115 2   
   118  114  126 1   
   119  116  117 1   
   120  116  118 1   
   121  116  121 1   
   122  117  123 1   
   123  117  124 1   
   124  117  125 1   
   125  118  122 1   
   126  126  127 1   
   127  126  133 1   
   128  127  128 1   
   129  127  130 1   
   130  127  134 1   
   131  128  129 2   
   132  128  140 1   
   133  130  131 1   
   134  130  132 1   
   135  130  135 1   
   136  131  137 1   
   137  131  138 1   
   138  131  139 1   
   139  132  136 1   
   140  140  141 1   
   141  140  149 1   
   142  141  142 1   
   143  141  144 1   
   144  141  150 1   
   145  142  143 2   
   146  142  162 1   
   147  144  145 1   
   148  144  151 1   
   149  144  152 1   
   150  145  146 1   
   151  145  153 1   
   152  145  154 1   
   153  146  147 1   
   154  146  155 1   
   155  146  156 1   
   156  147  148 1   
   157  147  157 1   
   158  147  158 1   
   159  148  159 1   
   160  148  160 1   
   161  148  161 1   
   162  162  163 1   
   163  162  171 1   
   164  163  164 1   
   165  163  166 1   
   166  163  172 1   
   167  164  165 2   
   168  164  177 1   
   169  166  167 1   
   170  166  173 1   
   171  166  174 1   
   172  167  168 1   
   173  167  175 1   
   174  167  176 1   
   175  168  169 1   
   176  168  170 1   
   177  177  178 1   
   178  177  182 1   
   179  178  179 1   
   180  178  180 1   
   181  178  181 1   
   182  184  185 1   
   183  184  186 1   
   184  187  188 1   
   185  187  189 1   
@<TRIPOS>SUBSTRUCTURE
     1 MOL         1 TEMP              0 ****  ****    0 ROOT
