@<TRIPOS>MOLECULE
MOL
  175   173     1     0     0
SMALL
resp


@<TRIPOS>ATOM
      1 C1         -0.8960    4.1640    5.3870 c3        1 MOL     -0.347997
      2 C2         -1.3610    3.6090    4.0190 c         1 MOL      0.630478
      3 O1         -0.8010    3.9780    2.9880 o         1 MOL     -0.546210
      4 H1         -1.2620    3.5170    6.1840 hc        1 MOL      0.092172
      5 H2          0.1920    4.1950    5.4170 hc        1 MOL      0.092172
      6 H3         -1.2930    5.1700    5.5250 hc        1 MOL      0.092172
      7 N1         -2.4070    2.7640    3.9490 n         1 MOL     -0.526370
      8 C3         -3.0080    2.3540    2.5710 c3        1 MOL      0.123262
      9 C4         -3.7030    3.4550    1.7760 c         1 MOL      0.379202
     10 O2         -4.9390    3.5670    1.6590 o         1 MOL     -0.518204
     11 C5         -3.8210    1.0890    2.8180 c3        1 MOL      0.020438
     12 C6         -4.4600    0.4070    1.6620 c         1 MOL      0.615595
     13 O3         -5.3740   -0.4380    1.7930 o         1 MOL     -0.677321
     14 O4         -3.8990    0.7280    0.5610 o         1 MOL     -0.677321
     15 H4         -2.8080    2.4290    4.8090 hn        1 MOL      0.292786
     16 H5         -2.1520    2.0300    1.9690 h1        1 MOL      0.014013
     17 H6         -4.6680    1.2250    3.4940 hc        1 MOL     -0.001185
     18 H7         -3.2110    0.4150    3.4210 hc        1 MOL     -0.001185
     19 N2         -2.9240    4.1910    1.0460 n         1 MOL     -0.168936
     20 C7         -3.3410    5.3870    0.2990 c3        1 MOL      0.097817
     21 C8         -4.3300    5.1610   -0.9070 c         1 MOL      0.423797
     22 O5         -4.9200    6.1770   -1.3840 o         1 MOL     -0.561514
     23 C9         -2.0310    6.1030   -0.1480 c3        1 MOL     -0.333877
     24 H8         -1.9180    4.0630    1.0950 hn        1 MOL      0.244961
     25 H9         -3.8730    6.0570    0.9810 h1        1 MOL      0.046176
     26 H10        -2.2780    7.0850   -0.5280 hc        1 MOL      0.101900
     27 H11        -1.3770    6.1510    0.7240 hc        1 MOL      0.101900
     28 H12        -1.5080    5.5350   -0.9230 hc        1 MOL      0.101900
     29 N3         -4.4540    3.9190   -1.4210 n         1 MOL     -0.181930
     30 C10        -5.4740    3.5210   -2.3710 c3        1 MOL      0.083195
     31 C11        -6.5470    2.5790   -1.8090 c         1 MOL      0.383574
     32 O6         -7.5090    2.3080   -2.4850 o         1 MOL     -0.559219
     33 C12        -4.7840    2.8830   -3.6170 c3        1 MOL     -0.205332
     34 C13        -3.6270    1.8790   -3.4320 c         1 MOL      0.693539
     35 O7         -2.6900    1.8770   -4.2690 o         1 MOL     -0.692297
     36 O8         -3.5650    1.0310   -2.5160 o         1 MOL     -0.692297
     37 H13        -4.0280    3.2510   -0.7910 hn        1 MOL      0.059191
     38 H14        -6.1000    4.3720   -2.6550 h1        1 MOL      0.087549
     39 H15        -4.5240    3.7110   -4.2850 hc        1 MOL      0.055187
     40 H16        -5.5550    2.3980   -4.2170 hc        1 MOL      0.055187
     41 N4         -6.4010    2.1110   -0.5740 n         1 MOL      0.029743
     42 C14        -7.4300    1.2920    0.1120 c3        1 MOL     -0.287892
     43 C15        -7.5950   -0.2010   -0.3300 c         1 MOL      0.631835
     44 O9         -8.5690   -0.8120    0.0710 o         1 MOL     -0.606290
     45 H17        -5.6770    2.4390    0.0340 hn        1 MOL      0.040411
     46 H18        -8.4260    1.7480    0.1200 h1        1 MOL      0.116752
     47 H19        -7.0740    1.1430    1.1280 h1        1 MOL      0.116752
     48 N5         -6.6540   -0.6840   -1.1320 n         1 MOL     -0.381124
     49 C16        -6.6550   -2.0600   -1.7390 c3        1 MOL     -0.031651
     50 C17        -6.3810   -3.1620   -0.6900 c         1 MOL      0.526679
     51 O10        -6.4230   -4.3430   -1.0230 o         1 MOL     -0.579019
     52 C18        -5.7780   -1.9760   -2.9960 c3        1 MOL     -0.079836
     53 C19        -4.2900   -2.0040   -2.7990 c         1 MOL      0.681831
     54 N6         -3.6260   -2.3710   -3.8590 n         1 MOL     -0.717787
     55 O11        -3.7030   -1.8740   -1.7040 o         1 MOL     -0.682584
     56 H20        -5.7930   -0.1530   -1.1560 hn        1 MOL      0.200610
     57 H21        -7.6320   -2.3710   -2.1020 h1        1 MOL      0.104579
     58 H22        -6.0240   -1.1240   -3.6240 hc        1 MOL      0.046995
     59 H23        -6.0160   -2.8600   -3.5900 hc        1 MOL      0.046995
     60 H24        -4.0900   -2.4190   -4.7650 hn        1 MOL      0.337573
     61 H25        -2.6190   -2.3920   -3.8560 hn        1 MOL      0.337573
     62 N7         -6.2570   -2.7910    0.6100 n         1 MOL     -0.218032
     63 C20        -6.2730   -3.7470    1.7030 c3        1 MOL     -0.337395
     64 C21        -4.8570   -4.3180    2.1350 c         1 MOL      0.578229
     65 O12        -4.7510   -5.0920    3.0890 o         1 MOL     -0.576755
     66 H26        -6.1440   -1.8280    0.8920 hn        1 MOL      0.330886
     67 H27        -7.0340   -4.5040    1.5540 h1        1 MOL      0.141858
     68 H28        -6.6330   -3.0590    2.4630 h1        1 MOL      0.141858
     69 N8         -3.8270   -3.8230    1.4890 n         1 MOL     -0.205456
     70 C22        -2.4250   -4.2040    1.5170 c3        1 MOL     -0.194025
     71 C23        -1.4840   -3.0280    1.4770 c         1 MOL      0.688107
     72 O13        -1.8410   -1.9630    0.9350 o         1 MOL     -0.613793
     73 C24        -2.0900   -5.0770    0.3420 c3        1 MOL      0.321416
     74 C25        -2.9180   -6.3590    0.2830 c3        1 MOL     -0.465247
     75 O14        -2.2980   -4.5130   -0.9300 oh        1 MOL     -0.494429
     76 H29        -3.9710   -3.0950    0.8030 hn        1 MOL      0.194967
     77 H30        -2.1810   -4.7540    2.4280 h1        1 MOL      0.110067
     78 H31        -1.0190   -5.2590    0.3010 h1        1 MOL      0.026423
     79 H32        -2.2090   -5.2930   -1.4840 ho        1 MOL      0.353067
     80 H33        -3.9710   -6.1310    0.3640 hc        1 MOL      0.122802
     81 H34        -2.5990   -7.0230   -0.5150 hc        1 MOL      0.122802
     82 H35        -2.7380   -6.9040    1.2160 hc        1 MOL      0.122802
     83 N9         -0.2460   -3.2480    1.9350 n         1 MOL     -0.402209
     84 C26         0.8340   -2.3080    1.7720 c3        1 MOL     -0.365275
     85 C27         1.6910   -2.8840    0.6960 c         1 MOL      0.717617
     86 O15         1.8790   -4.0590    0.6690 o         1 MOL     -0.615586
     87 C28         1.5660   -2.0280    3.0680 c3        1 MOL      0.440155
     88 C29         2.2030   -3.3150    3.7560 c3        1 MOL     -0.159473
     89 C30         0.7270   -1.1620    3.9980 c3        1 MOL     -0.539627
     90 C31         3.1530   -2.8430    4.8550 c3        1 MOL     -0.028471
     91 H36         0.0310   -4.1610    2.2380 hn        1 MOL      0.239955
     92 H37         0.4560   -1.3440    1.4230 h1        1 MOL      0.116984
     93 H38         2.4430   -1.4160    2.8460 hc        1 MOL     -0.163821
     94 H39         2.8730   -3.8600    3.0830 hc        1 MOL      0.061998
     95 H40         1.4820   -4.0060    4.2060 hc        1 MOL      0.061998
     96 H41         0.0510   -0.5200    3.4340 hc        1 MOL      0.140797
     97 H42         0.3160   -1.8910    4.7030 hc        1 MOL      0.140797
     98 H43         1.3960   -0.4860    4.5280 hc        1 MOL      0.140797
     99 H44         3.8420   -2.0820    4.4760 hc        1 MOL     -0.000325
    100 H45         2.6240   -2.4480    5.7160 hc        1 MOL     -0.000325
    101 H46         3.7000   -3.7270    5.1950 hc        1 MOL     -0.000325
    102 N10         2.2860   -1.9990   -0.1230 n         1 MOL     -0.456720
    103 C32         3.2960   -2.2020   -1.1900 c3        1 MOL      0.080133
    104 C33         4.5890   -1.3810   -0.8210 c         1 MOL      0.506731
    105 O16         4.5190   -0.6390    0.1310 o         1 MOL     -0.488428
    106 C34         2.7230   -1.5700   -2.5060 c3        1 MOL     -0.173863
    107 C35         3.6260   -1.6520   -3.7350 c         1 MOL      0.666516
    108 O17         4.5710   -2.4670   -3.7980 o         1 MOL     -0.692936
    109 O18         3.3720   -0.8110   -4.6580 o         1 MOL     -0.692936
    110 H47         1.8370   -1.0950   -0.0520 hn        1 MOL      0.409036
    111 H48         3.6610   -3.2180   -1.3020 h1        1 MOL      0.058114
    112 H49         2.4990   -0.5150   -2.3320 hc        1 MOL      0.028603
    113 H50         1.7050   -1.9270   -2.6700 hc        1 MOL      0.028603
    114 N11         5.7230   -1.4830   -1.5190 n         1 MOL     -0.567178
    115 C36         6.9760   -0.9750   -1.0440 c3        1 MOL      0.555608
    116 C37         7.0790    0.4410   -0.4480 c         1 MOL      0.342068
    117 O19         7.7000    0.5780    0.6220 o         1 MOL     -0.541528
    118 C38         8.1360   -1.2490   -1.9980 c3        1 MOL     -0.212505
    119 C39         9.5790   -1.0360   -1.6250 ca        1 MOL      0.141992
    120 C40        10.2260   -1.7940   -0.6430 ca        1 MOL     -0.217734
    121 C41        10.2000    0.0840   -2.1510 ca        1 MOL     -0.217734
    122 C42        11.5310   -1.5060   -0.3040 ca        1 MOL     -0.020873
    123 C43        11.5470    0.2900   -1.8660 ca        1 MOL     -0.020873
    124 C44        12.2620   -0.5700   -1.0090 ca        1 MOL     -0.210703
    125 H51         5.6730   -2.0540   -2.3600 hn        1 MOL      0.266322
    126 H52         7.1680   -1.5960   -0.1750 h1        1 MOL     -0.048245
    127 H53         7.9140   -0.6070   -2.8470 hc        1 MOL      0.053328
    128 H54         8.0380   -2.3170   -2.2180 hc        1 MOL      0.053328
    129 H55         9.5970   -2.5000   -0.1110 ha        1 MOL      0.120643
    130 H56         9.6130    0.7230   -2.7900 ha        1 MOL      0.120643
    131 H57        11.9430   -1.9760    0.5820 ha        1 MOL      0.080471
    132 H58        12.1200    1.0850   -2.3370 ha        1 MOL      0.080471
    133 H59        13.3060   -0.4940   -0.7770 ha        1 MOL      0.116454
    134 N12         6.6670    1.5130   -1.0740 n         1 MOL     -0.136799
    135 C45         6.5620    2.8580   -0.5190 c3        1 MOL      0.013556
    136 C46         5.5880    3.0020    0.7200 c         1 MOL      0.296401
    137 O20         5.9580    3.8120    1.6360 o         1 MOL     -0.515518
    138 C47         5.9220    3.7080   -1.6980 c3        1 MOL     -0.184051
    139 C48         5.0140    2.7160   -2.3940 c3        1 MOL      0.103006
    140 C49         5.9210    1.4870   -2.3970 c3        1 MOL     -0.154357
    141 H60         7.4580    3.4030   -0.2500 h1        1 MOL      0.083376
    142 H61         5.4300    4.6230   -1.3710 hc        1 MOL      0.064903
    143 H62         6.7110    4.0540   -2.3660 hc        1 MOL      0.064903
    144 H63         4.2220    2.4970   -1.6800 hc        1 MOL      0.003970
    145 H64         4.5610    3.0020   -3.3530 hc        1 MOL      0.003970
    146 H65         5.2710    0.6130   -2.4430 h1        1 MOL      0.081924
    147 H66         6.6310    1.6320   -3.2050 h1        1 MOL      0.081924
    148 N13         4.5890    2.1480    0.8380 n         1 MOL     -0.161636
    149 C50         3.6260    2.0760    1.9660 c3        1 MOL     -0.116375
    150 C51         4.3260    1.2990    3.1020 c         1 MOL      0.478888
    151 O21         4.3130    1.7260    4.2240 o         1 MOL     -0.586994
    152 C52         2.2810    1.4390    1.5250 c3        1 MOL      0.068440
    153 C53         1.4540    2.3340    0.6450 c3        1 MOL     -0.156340
    154 C54         0.3500    1.5230   -0.0120 c         1 MOL      0.779895
    155 O22        -0.7130    2.0890   -0.2660 o         1 MOL     -0.753572
    156 O23         0.4600    0.3080   -0.2490 o         1 MOL     -0.753572
    157 H67         4.5040    1.4860    0.0850 hn        1 MOL      0.322241
    158 H68         3.4320    3.0550    2.4220 h1        1 MOL      0.105060
    159 H69         1.7000    1.0360    2.3600 hc        1 MOL      0.016794
    160 H70         2.5600    0.5360    0.9720 hc        1 MOL      0.016794
    161 H71         2.0130    2.7310   -0.2010 hc        1 MOL      0.025971
    162 H72         1.1570    3.2060    1.2220 hc        1 MOL      0.025971
    163 N14         5.0870    0.2730    2.7830 n         1 MOL      0.055779
    164 C55         6.0070   -0.4390    3.6400 c3        1 MOL     -0.191260
    165 H73         5.5510   -1.3750    3.9640 h1        1 MOL      0.066735
    166 H74         6.9240   -0.6530    3.0920 h1        1 MOL      0.066735
    167 H75         6.2390    0.1720    4.5130 h1        1 MOL      0.066735
    168 H76         5.1500    0.0430    1.8020 hn        1 MOL      0.053597
    169 Ca1        -2.0180   -0.0500   -0.9290 Ca        1 MOL      1.742448
    170 O24        -0.5170    0.4350   -3.2720 oh        1 MOL     -0.864886
    171 H77         0.3000    0.2780   -3.7500 ho        1 MOL      0.404624
    172 H78        -0.9980    1.0680   -3.8060 ho        1 MOL      0.404624
    173 O25        -0.9810   -2.3810   -1.8760 oh        1 MOL     -0.864886
    174 H79        -0.6820   -2.5660   -2.7590 ho        1 MOL      0.404624
    175 H80        -1.5690   -3.1060   -1.6580 ho        1 MOL      0.404624
@<TRIPOS>BOND
     1    1    2 1   
     2    1    4 1   
     3    1    5 1   
     4    1    6 1   
     5    2    3 2   
     6    2    7 1   
     7    7    8 1   
     8    7   15 1   
     9    8    9 1   
    10    8   11 1   
    11    8   16 1   
    12    9   10 2   
    13    9   19 1   
    14   11   12 1   
    15   11   17 1   
    16   11   18 1   
    17   12   13 1   
    18   12   14 1   
    19   19   20 1   
    20   19   24 1   
    21   20   21 1   
    22   20   23 1   
    23   20   25 1   
    24   21   22 2   
    25   21   29 1   
    26   23   26 1   
    27   23   27 1   
    28   23   28 1   
    29   29   30 1   
    30   29   37 1   
    31   30   31 1   
    32   30   33 1   
    33   30   38 1   
    34   31   32 2   
    35   31   41 1   
    36   33   34 1   
    37   33   39 1   
    38   33   40 1   
    39   34   35 1   
    40   34   36 1   
    41   41   42 1   
    42   41   45 1   
    43   42   43 1   
    44   42   46 1   
    45   42   47 1   
    46   43   44 2   
    47   43   48 1   
    48   48   49 1   
    49   48   56 1   
    50   49   50 1   
    51   49   52 1   
    52   49   57 1   
    53   50   51 2   
    54   50   62 1   
    55   52   53 1   
    56   52   58 1   
    57   52   59 1   
    58   53   54 1   
    59   53   55 2   
    60   54   60 1   
    61   54   61 1   
    62   62   63 1   
    63   62   66 1   
    64   63   64 1   
    65   63   67 1   
    66   63   68 1   
    67   64   65 2   
    68   64   69 1   
    69   69   70 1   
    70   69   76 1   
    71   70   71 1   
    72   70   73 1   
    73   70   77 1   
    74   71   72 2   
    75   71   83 1   
    76   73   74 1   
    77   73   75 1   
    78   73   78 1   
    79   74   80 1   
    80   74   81 1   
    81   74   82 1   
    82   75   79 1   
    83   83   84 1   
    84   83   91 1   
    85   84   85 1   
    86   84   87 1   
    87   84   92 1   
    88   85   86 2   
    89   85  102 1   
    90   87   88 1   
    91   87   89 1   
    92   87   93 1   
    93   88   90 1   
    94   88   94 1   
    95   88   95 1   
    96   89   96 1   
    97   89   97 1   
    98   89   98 1   
    99   90   99 1   
   100   90  100 1   
   101   90  101 1   
   102  102  103 1   
   103  102  110 1   
   104  103  104 1   
   105  103  106 1   
   106  103  111 1   
   107  104  105 2   
   108  104  114 1   
   109  106  107 1   
   110  106  112 1   
   111  106  113 1   
   112  107  108 1   
   113  107  109 1   
   114  114  115 1   
   115  114  125 1   
   116  115  116 1   
   117  115  118 1   
   118  115  126 1   
   119  116  117 2   
   120  116  134 1   
   121  118  119 1   
   122  118  127 1   
   123  118  128 1   
   124  119  120 ar  
   125  119  121 ar  
   126  120  122 ar  
   127  120  129 1   
   128  121  123 ar  
   129  121  130 1   
   130  122  124 ar  
   131  122  131 1   
   132  123  124 ar  
   133  123  132 1   
   134  124  133 1   
   135  134  135 1   
   136  134  140 1   
   137  135  136 1   
   138  135  138 1   
   139  135  141 1   
   140  136  137 2   
   141  136  148 1   
   142  138  139 1   
   143  138  142 1   
   144  138  143 1   
   145  139  140 1   
   146  139  144 1   
   147  139  145 1   
   148  140  146 1   
   149  140  147 1   
   150  148  149 1   
   151  148  157 1   
   152  149  150 1   
   153  149  152 1   
   154  149  158 1   
   155  150  151 2   
   156  150  163 1   
   157  152  153 1   
   158  152  159 1   
   159  152  160 1   
   160  153  154 1   
   161  153  161 1   
   162  153  162 1   
   163  154  155 1   
   164  154  156 1   
   165  163  164 1   
   166  163  168 1   
   167  164  165 1   
   168  164  166 1   
   169  164  167 1   
   170  170  171 1   
   171  170  172 1   
   172  173  174 1   
   173  173  175 1   
@<TRIPOS>SUBSTRUCTURE
     1 MOL         1 TEMP              0 ****  ****    0 ROOT
