@<TRIPOS>MOLECULE
MOL
  189   185     1     0     0
SMALL
resp


@<TRIPOS>ATOM
      1 C1          0.2130   -2.0340    6.2180 c3        1 MOL     -0.543688
      2 C2          0.7040   -2.0180    4.7800 c         1 MOL      0.657470
      3 O1          0.8750   -0.9630    4.1960 o         1 MOL     -0.518649
      4 H1          0.3070   -3.0420    6.6220 hc        1 MOL      0.143892
      5 H2          0.8130   -1.3460    6.8150 hc        1 MOL      0.143892
      6 H3         -0.8320   -1.7270    6.2500 hc        1 MOL      0.143892
      7 N1          1.1560   -3.1490    4.3160 n         1 MOL     -0.506977
      8 C3          1.7330   -3.3540    2.9850 c3        1 MOL      0.265200
      9 C4          1.2060   -4.6270    2.3750 c         1 MOL      0.307989
     10 O2          1.1170   -5.7150    2.9480 o         1 MOL     -0.563483
     11 C5          3.2940   -3.1930    3.1110 c3        1 MOL     -0.164909
     12 C6          3.7670   -3.4230    1.6560 c         1 MOL      0.538855
     13 O3          3.5630   -2.4690    0.8530 o         1 MOL     -0.604325
     14 O4          4.3620   -4.4500    1.2250 o         1 MOL     -0.604325
     15 H4          1.0380   -3.9530    4.9180 hn        1 MOL      0.284748
     16 H5          1.3490   -2.5280    2.3720 h1        1 MOL     -0.050902
     17 H6          3.7410   -3.9560    3.7440 hc        1 MOL      0.035685
     18 H7          3.5390   -2.2160    3.5100 hc        1 MOL      0.035685
     19 N2          0.9350   -4.5220    1.1070 n         1 MOL      0.035585
     20 C7          0.7710   -5.6090    0.0830 c3        1 MOL     -0.202810
     21 C8          1.5570   -5.3800   -1.2350 c         1 MOL      0.449865
     22 O5          1.3390   -6.0530   -2.1880 o         1 MOL     -0.549946
     23 C9         -0.7590   -5.8470   -0.2260 c3        1 MOL      0.193033
     24 C10        -1.4230   -4.8830   -1.2660 c3        1 MOL     -0.057678
     25 C11        -1.6850   -5.8530    1.0810 c3        1 MOL     -0.213498
     26 C12        -2.8940   -5.1460   -1.4680 c3        1 MOL     -0.300846
     27 H8          0.9280   -3.5790    0.7510 hn        1 MOL      0.233710
     28 H9          1.0920   -6.5560    0.5100 h1        1 MOL      0.132890
     29 H10        -0.7790   -6.8440   -0.6650 hc        1 MOL     -0.016481
     30 H11        -0.9220   -4.8210   -2.2270 hc        1 MOL      0.058418
     31 H12        -1.3390   -3.8720   -0.8650 hc        1 MOL      0.058418
     32 H13        -1.0250   -6.3410    1.8020 hc        1 MOL      0.034515
     33 H14        -1.8580   -4.8280    1.4140 hc        1 MOL      0.034515
     34 H15        -2.5900   -6.4470    0.9570 hc        1 MOL      0.034515
     35 H16        -3.0370   -6.2210   -1.5420 hc        1 MOL      0.082604
     36 H17        -3.4490   -4.7160   -0.6310 hc        1 MOL      0.082604
     37 H18        -3.2650   -4.5440   -2.2900 hc        1 MOL      0.082604
     38 N3          2.4820   -4.3860   -1.3810 n         1 MOL     -0.201052
     39 C13         3.2760   -4.1730   -2.6310 c3        1 MOL      0.080434
     40 C14         4.7930   -3.7160   -2.5550 c         1 MOL      0.304286
     41 O6          5.5430   -3.9550   -3.4790 o         1 MOL     -0.553227
     42 C15         2.5950   -3.1660   -3.6360 c3        1 MOL     -0.305019
     43 C16         2.4780   -1.6860   -3.2290 c         1 MOL      0.762210
     44 O7          3.1220   -1.2130   -2.2700 o         1 MOL     -0.678096
     45 O8          1.7330   -0.9160   -3.9000 o         1 MOL     -0.678096
     46 H19         2.3650   -3.7680   -0.5910 hn        1 MOL      0.070759
     47 H20         3.2850   -5.1430   -3.1140 h1        1 MOL      0.095168
     48 H21         1.6080   -3.5930   -3.8200 hc        1 MOL      0.083428
     49 H22         3.1980   -3.2840   -4.5290 hc        1 MOL      0.083428
     50 N4          5.2220   -3.2270   -1.4320 n         1 MOL      0.135271
     51 C17         6.5930   -2.9180   -1.1410 c3        1 MOL     -0.057132
     52 C18         7.1120   -1.6360   -1.8010 c         1 MOL      0.465449
     53 O9          8.2990   -1.5370   -1.9650 o         1 MOL     -0.586317
     54 H23         4.6150   -3.3160   -0.6380 hn        1 MOL     -0.059625
     55 H24         7.2490   -3.7380   -1.4430 h1        1 MOL      0.052231
     56 H25         6.7580   -2.8460   -0.0680 h1        1 MOL      0.052231
     57 N5          6.2440   -0.6320   -2.1740 n         1 MOL     -0.192369
     58 C19         6.5660    0.7400   -2.7620 c3        1 MOL     -0.027925
     59 C20         6.9980    1.8070   -1.7460 c         1 MOL      0.368300
     60 O10         7.3010    2.9980   -2.0450 o         1 MOL     -0.528471
     61 C21         5.4030    1.3430   -3.4840 c3        1 MOL     -0.309737
     62 C22         4.1610    1.6840   -2.6610 c         1 MOL      0.803325
     63 O11         4.0990    1.3240   -1.4850 o         1 MOL     -0.687417
     64 O12         3.2830    2.2640   -3.2880 o         1 MOL     -0.687417
     65 H26         5.2560   -0.8130   -2.0590 hn        1 MOL      0.135448
     66 H27         7.3700    0.5800   -3.4810 h1        1 MOL      0.107488
     67 H28         5.0800    0.6000   -4.2170 hc        1 MOL      0.091496
     68 H29         5.7480    2.2230   -4.0310 hc        1 MOL      0.091496
     69 N6          7.0920    1.4040   -0.4790 n         1 MOL     -0.211840
     70 C23         7.4080    2.2800    0.6760 c3        1 MOL     -0.149540
     71 C24         6.3240    3.3360    1.0670 c         1 MOL      0.421246
     72 O13         6.5740    4.1860    1.9510 o         1 MOL     -0.575604
     73 H30         6.8820    0.4250   -0.3950 hn        1 MOL      0.177171
     74 H31         8.2400    2.8690    0.2830 h1        1 MOL      0.099671
     75 H32         7.8480    1.7470    1.5200 h1        1 MOL      0.099671
     76 N7          5.0930    3.1700    0.6000 n         1 MOL     -0.069856
     77 C25         3.9660    3.9840    1.0600 c3        1 MOL     -0.152509
     78 C26         2.6300    3.2710    1.2480 c         1 MOL      0.641794
     79 O14         2.2650    2.3590    0.4490 o         1 MOL     -0.611079
     80 C27         3.7000    4.9790   -0.0350 c3        1 MOL      0.001242
     81 C28         4.9570    5.7300   -0.5980 c3        1 MOL     -0.082918
     82 C29         4.5870    7.0410   -1.1690 c         1 MOL      0.602398
     83 N8          4.4070    7.1320   -2.4420 n         1 MOL     -0.740108
     84 O15         4.4320    8.0570   -0.4710 o         1 MOL     -0.610374
     85 H33         4.9550    2.3670    0.0040 hn        1 MOL      0.161785
     86 H34         4.1740    4.5330    1.9830 h1        1 MOL      0.079196
     87 H35         3.0970    5.7980    0.3710 hc        1 MOL      0.028207
     88 H36         3.2110    4.5480   -0.9070 hc        1 MOL      0.028207
     89 H37         5.5270    5.1680   -1.3300 hc        1 MOL      0.050534
     90 H38         5.6560    5.9570    0.2070 hc        1 MOL      0.050534
     91 H39         4.3450    6.2820   -2.9800 hn        1 MOL      0.346296
     92 H40         3.8050    7.9210   -2.6560 hn        1 MOL      0.346296
     93 N9          1.8970    3.6930    2.2930 n         1 MOL     -0.630266
     94 C30         0.5570    3.0150    2.5340 c3        1 MOL      0.100163
     95 C31        -0.4770    3.6010    1.6260 c         1 MOL      0.478059
     96 O16        -0.7680    4.8260    1.7830 o         1 MOL     -0.609535
     97 C32         0.0390    3.1960    4.0150 c3        1 MOL      0.108533
     98 C33        -1.0830    2.1320    4.1290 c3        1 MOL     -0.153762
     99 C34         1.1010    2.9450    5.0310 c3        1 MOL     -0.153762
    100 H41         2.2180    4.5130    2.7880 hn        1 MOL      0.367851
    101 H42         0.7380    1.9850    2.2400 h1        1 MOL      0.150281
    102 H43        -0.4100    4.1720    4.1970 hc        1 MOL      0.031419
    103 H44        -1.6040    2.2920    5.0770 hc        1 MOL      0.025311
    104 H45        -1.8870    2.2990    3.3990 hc        1 MOL      0.025311
    105 H46        -0.7370    1.1050    4.1510 hc        1 MOL      0.025311
    106 H47         1.7690    3.7980    4.9460 hc        1 MOL      0.025311
    107 H48         0.7380    2.9990    6.0600 hc        1 MOL      0.025311
    108 H49         1.6240    2.0110    4.8400 hc        1 MOL      0.025311
    109 N10        -1.2240    2.8000    0.8350 n         1 MOL     -0.128668
    110 C35        -2.3570    3.1830   -0.0220 c3        1 MOL      0.106761
    111 C36        -3.6990    2.6470    0.4960 c         1 MOL      0.455064
    112 O17        -3.6990    1.6410    1.2320 o         1 MOL     -0.451875
    113 C37        -2.0940    2.8870   -1.4760 c3        1 MOL     -0.232577
    114 C38        -2.6660    1.5780   -2.0540 c         1 MOL      0.513457
    115 N11        -2.0230    0.5180   -1.7500 n         1 MOL     -0.427632
    116 O18        -3.8080    1.4680   -2.5350 o         1 MOL     -0.541630
    117 H50        -1.0600    1.7960    0.8760 hn        1 MOL      0.072206
    118 H51        -2.4970    4.2530    0.0940 h1        1 MOL      0.040384
    119 H52        -1.0160    2.8450   -1.5910 hc        1 MOL      0.077368
    120 H53        -2.4750    3.7410   -2.0380 hc        1 MOL      0.077368
    121 H54        -1.1570    0.6180   -1.2400 hn        1 MOL      0.299578
    122 H55        -2.4340   -0.3810   -1.9550 hn        1 MOL      0.299578
    123 N12        -4.8500    3.1850    0.0890 n         1 MOL     -0.653237
    124 C39        -6.1330    2.7220    0.7560 c3        1 MOL      0.308697
    125 C40        -6.4730    1.1880    0.6080 c         1 MOL      0.305507
    126 O19        -7.2200    0.6440    1.3930 o         1 MOL     -0.534899
    127 C41        -7.2970    3.6130    0.2530 c3        1 MOL     -0.192442
    128 C42        -8.1420    3.0760   -0.8930 ca        1 MOL      0.025375
    129 C43        -9.2960    2.2890   -0.6160 ca        1 MOL     -0.127031
    130 C44        -7.6890    3.2920   -2.2030 ca        1 MOL     -0.127031
    131 C45       -10.0130    1.7090   -1.6610 ca        1 MOL     -0.293245
    132 C46        -8.3950    2.6750   -3.2290 ca        1 MOL     -0.293245
    133 C47        -9.5410    1.8040   -2.9690 ca        1 MOL      0.304199
    134 O20       -10.0930    1.1810   -4.0610 oh        1 MOL     -0.461231
    135 H56        -4.7730    3.9330   -0.5840 hn        1 MOL      0.365544
    136 H57        -6.1200    2.9480    1.8280 h1        1 MOL      0.066347
    137 H58        -6.8660    4.5850   -0.0020 hc        1 MOL      0.044220
    138 H59        -7.9670    3.7110    1.1090 hc        1 MOL      0.044220
    139 H60        -9.6580    2.1690    0.3990 ha        1 MOL      0.136464
    140 H61        -6.8620    3.9460   -2.4270 ha        1 MOL      0.136464
    141 H62       -10.7990    1.0260   -1.4050 ha        1 MOL      0.164732
    142 H63        -8.0750    2.8010   -4.2520 ha        1 MOL      0.164732
    143 H64       -10.6630    0.4450   -3.8120 ho        1 MOL      0.355038
    144 N13        -5.9450    0.4420   -0.3520 n         1 MOL     -0.091338
    145 C48        -6.1820   -1.0260   -0.5010 c3        1 MOL      0.015260
    146 C49        -5.3960   -1.8650    0.5360 c         1 MOL      0.272944
    147 O21        -5.8340   -2.9850    0.8800 o         1 MOL     -0.501243
    148 C50        -5.7210   -1.3260   -1.9470 c3        1 MOL     -0.101249
    149 C51        -6.8400   -1.1170   -2.9120 c3        1 MOL     -0.176414
    150 C52        -6.4080   -1.6490   -4.2760 c         1 MOL      0.652461
    151 O22        -7.1930   -2.3510   -4.9290 o         1 MOL     -0.718434
    152 O23        -5.2230   -1.4670   -4.6970 o         1 MOL     -0.718434
    153 H65        -5.3030    0.8630   -1.0080 hn        1 MOL      0.221502
    154 H66        -7.2400   -1.2080   -0.3640 h1        1 MOL      0.096871
    155 H67        -5.5350   -2.4060   -1.9510 hc        1 MOL      0.083508
    156 H68        -4.9130   -0.6350   -2.2110 hc        1 MOL      0.083508
    157 H69        -7.1230   -0.0690   -2.9920 hc        1 MOL      0.028578
    158 H70        -7.7520   -1.6080   -2.5720 hc        1 MOL      0.028578
    159 N14        -4.3930   -1.2060    1.1960 n         1 MOL     -0.082078
    160 C53        -3.7050   -1.7020    2.3970 c3        1 MOL     -0.150713
    161 C54        -4.2780   -1.2280    3.7220 c         1 MOL      0.489797
    162 O24        -3.9020   -1.6820    4.8230 o         1 MOL     -0.568811
    163 C55        -2.2370   -1.1730    2.3290 c3        1 MOL      0.030489
    164 C56        -1.6140   -1.7600    1.0620 c3        1 MOL      0.178909
    165 C57        -0.2200   -1.1630    0.7110 c         1 MOL      0.580632
    166 O25         0.7310   -1.9110    0.3680 o         1 MOL     -0.728092
    167 O26        -0.0450    0.0890    0.7160 o         1 MOL     -0.728092
    168 H71        -4.0740   -0.2940    0.9010 hn        1 MOL      0.012413
    169 H72        -3.6370   -2.7860    2.2980 h1        1 MOL      0.101617
    170 H73        -1.7210   -1.4780    3.2360 hc        1 MOL      0.046642
    171 H74        -2.1370   -0.1010    2.1710 hc        1 MOL      0.046642
    172 H75        -2.1630   -1.6160    0.1340 hc        1 MOL     -0.044309
    173 H76        -1.4290   -2.8180    1.2440 hc        1 MOL     -0.044309
    174 N15        -5.1610   -0.2020    3.7440 n         1 MOL     -0.187021
    175 C58        -5.5330    0.5530    4.9370 c3        1 MOL     -0.150816
    176 H77        -4.9810    1.4920    4.9600 h1        1 MOL      0.063981
    177 H78        -6.6030    0.7620    4.9170 h1        1 MOL      0.063981
    178 H79        -5.2940   -0.0300    5.8270 h1        1 MOL      0.063981
    179 H80        -5.5650    0.2420    2.9340 hn        1 MOL      0.193855
    180 Ca1         2.5260   -0.0650   -0.0310 Ca        1 MOL      1.710882
    181 O27         2.5720    0.2880    2.6480 oh        1 MOL     -0.866638
    182 H81         3.3840    0.2310    3.1500 ho        1 MOL      0.408633
    183 H82         1.8950   -0.0090    3.2500 ho        1 MOL      0.408633
    184 O28         5.0420   -0.0980    1.1940 oh        1 MOL     -0.866638
    185 H83         5.7790    0.0530    1.7850 ho        1 MOL      0.408633
    186 H84         4.9650   -1.0510    1.1380 ho        1 MOL      0.408633
    187 O29         1.0230    0.9710   -2.2300 oh        1 MOL     -0.866638
    188 H85         1.6760    1.6700   -2.2280 ho        1 MOL      0.408633
    189 H86         1.3560    0.3220   -2.8420 ho        1 MOL      0.408633
@<TRIPOS>BOND
     1    1    2 1   
     2    1    4 1   
     3    1    5 1   
     4    1    6 1   
     5    2    3 2   
     6    2    7 1   
     7    7    8 1   
     8    7   15 1   
     9    8    9 1   
    10    8   11 1   
    11    8   16 1   
    12    9   10 2   
    13    9   19 1   
    14   11   12 1   
    15   11   17 1   
    16   11   18 1   
    17   12   13 1   
    18   12   14 1   
    19   19   20 1   
    20   19   27 1   
    21   20   21 1   
    22   20   23 1   
    23   20   28 1   
    24   21   22 2   
    25   21   38 1   
    26   23   24 1   
    27   23   25 1   
    28   23   29 1   
    29   24   26 1   
    30   24   30 1   
    31   24   31 1   
    32   25   32 1   
    33   25   33 1   
    34   25   34 1   
    35   26   35 1   
    36   26   36 1   
    37   26   37 1   
    38   38   39 1   
    39   38   46 1   
    40   39   40 1   
    41   39   42 1   
    42   39   47 1   
    43   40   41 2   
    44   40   50 1   
    45   42   43 1   
    46   42   48 1   
    47   42   49 1   
    48   43   44 1   
    49   43   45 1   
    50   50   51 1   
    51   50   54 1   
    52   51   52 1   
    53   51   55 1   
    54   51   56 1   
    55   52   53 2   
    56   52   57 1   
    57   57   58 1   
    58   57   65 1   
    59   58   59 1   
    60   58   61 1   
    61   58   66 1   
    62   59   60 2   
    63   59   69 1   
    64   61   62 1   
    65   61   67 1   
    66   61   68 1   
    67   62   63 1   
    68   62   64 1   
    69   69   70 1   
    70   69   73 1   
    71   70   71 1   
    72   70   74 1   
    73   70   75 1   
    74   71   72 2   
    75   71   76 1   
    76   76   77 1   
    77   76   85 1   
    78   77   78 1   
    79   77   80 1   
    80   77   86 1   
    81   78   79 2   
    82   78   93 1   
    83   80   81 1   
    84   80   87 1   
    85   80   88 1   
    86   81   82 1   
    87   81   89 1   
    88   81   90 1   
    89   82   83 1   
    90   82   84 2   
    91   83   91 1   
    92   83   92 1   
    93   93   94 1   
    94   93  100 1   
    95   94   95 1   
    96   94   97 1   
    97   94  101 1   
    98   95   96 2   
    99   95  109 1   
   100   97   98 1   
   101   97   99 1   
   102   97  102 1   
   103   98  103 1   
   104   98  104 1   
   105   98  105 1   
   106   99  106 1   
   107   99  107 1   
   108   99  108 1   
   109  109  110 1   
   110  109  117 1   
   111  110  111 1   
   112  110  113 1   
   113  110  118 1   
   114  111  112 2   
   115  111  123 1   
   116  113  114 1   
   117  113  119 1   
   118  113  120 1   
   119  114  115 1   
   120  114  116 2   
   121  115  121 1   
   122  115  122 1   
   123  123  124 1   
   124  123  135 1   
   125  124  125 1   
   126  124  127 1   
   127  124  136 1   
   128  125  126 2   
   129  125  144 1   
   130  127  128 1   
   131  127  137 1   
   132  127  138 1   
   133  128  129 ar  
   134  128  130 ar  
   135  129  131 ar  
   136  129  139 1   
   137  130  132 ar  
   138  130  140 1   
   139  131  133 ar  
   140  131  141 1   
   141  132  133 ar  
   142  132  142 1   
   143  133  134 1   
   144  134  143 1   
   145  144  145 1   
   146  144  153 1   
   147  145  146 1   
   148  145  148 1   
   149  145  154 1   
   150  146  147 2   
   151  146  159 1   
   152  148  149 1   
   153  148  155 1   
   154  148  156 1   
   155  149  150 1   
   156  149  157 1   
   157  149  158 1   
   158  150  151 1   
   159  150  152 1   
   160  159  160 1   
   161  159  168 1   
   162  160  161 1   
   163  160  163 1   
   164  160  169 1   
   165  161  162 2   
   166  161  174 1   
   167  163  164 1   
   168  163  170 1   
   169  163  171 1   
   170  164  165 1   
   171  164  172 1   
   172  164  173 1   
   173  165  166 1   
   174  165  167 1   
   175  174  175 1   
   176  174  179 1   
   177  175  176 1   
   178  175  177 1   
   179  175  178 1   
   180  181  182 1   
   181  181  183 1   
   182  184  185 1   
   183  184  186 1   
   184  187  188 1   
   185  187  189 1   
@<TRIPOS>SUBSTRUCTURE
     1 MOL         1 TEMP              0 ****  ****    0 ROOT
