@<TRIPOS>MOLECULE
MOL
  189   185     1     0     0
SMALL
resp


@<TRIPOS>ATOM
      1 C1         -0.2020    2.5620    5.1350 c3        1 MOL     -0.512178
      2 C2         -0.8690    2.2900    3.7950 c         1 MOL      0.628161
      3 O1         -0.1450    2.3770    2.7710 o         1 MOL     -0.547288
      4 H1          0.0280    1.6160    5.6250 hc        1 MOL      0.144401
      5 H2          0.7200    3.1210    4.9750 hc        1 MOL      0.144401
      6 H3         -0.8750    3.1430    5.7660 hc        1 MOL      0.144401
      7 N1         -2.1470    1.8230    3.6910 n         1 MOL     -0.610549
      8 C3         -2.7570    1.4560    2.4080 c3        1 MOL      0.333633
      9 C4         -3.3810    2.6780    1.7920 c         1 MOL      0.324502
     10 O2         -4.5840    2.8690    1.7320 o         1 MOL     -0.470018
     11 C5         -3.7760    0.2690    2.5220 c3        1 MOL     -0.127186
     12 C6         -4.3110   -0.2390    1.2040 c         1 MOL      0.638884
     13 O3         -5.3370   -0.9760    1.2470 o         1 MOL     -0.589026
     14 O4         -3.7350    0.2350    0.2140 o         1 MOL     -0.589026
     15 H4         -2.7590    1.6550    4.4680 hn        1 MOL      0.315995
     16 H5         -1.9430    1.1340    1.7570 h1        1 MOL      0.020718
     17 H6         -4.6250    0.4730    3.1880 hc        1 MOL      0.011505
     18 H7         -3.2840   -0.5760    3.0070 hc        1 MOL      0.011505
     19 N2         -2.5040    3.5820    1.2870 n         1 MOL     -0.200829
     20 C7         -2.7980    4.9110    0.8570 c3        1 MOL     -0.186916
     21 C8         -3.5480    4.9070   -0.4850 c         1 MOL      0.561420
     22 O5         -4.3430    5.8140   -0.7530 o         1 MOL     -0.571615
     23 C9         -1.4540    5.6600    0.9960 c3        1 MOL     -0.024908
     24 C10        -1.5750    7.0930    0.6770 c3        1 MOL     -0.060125
     25 C11        -2.0840    8.0150    1.7860 c3        1 MOL      0.015387
     26 C12        -2.2190    9.4430    1.2560 c3        1 MOL      0.027564
     27 N3         -2.8930   10.2820    2.2370 n4        1 MOL     -0.317354
     28 H8         -1.5220    3.3760    1.3980 hn        1 MOL      0.209758
     29 H9         -3.4560    5.3800    1.5920 h1        1 MOL      0.102882
     30 H10        -0.6870    5.2470    0.3400 hc        1 MOL      0.074014
     31 H11        -1.0420    5.6460    1.9990 hc        1 MOL      0.074014
     32 H12        -2.2860    7.1580   -0.1450 hc        1 MOL      0.029555
     33 H13        -0.6090    7.4420    0.3130 hc        1 MOL      0.029555
     34 H14        -1.2470    8.0540    2.4840 hc        1 MOL      0.011464
     35 H15        -2.9620    7.6510    2.3170 hc        1 MOL      0.011464
     36 H16        -2.8490    9.5120    0.3660 hx        1 MOL      0.081625
     37 H17        -1.1960    9.7170    1.0080 hx        1 MOL      0.081625
     38 H18        -2.3360   10.3470    3.0840 hn        1 MOL      0.318099
     39 H19        -3.0190   11.2500    1.9870 hn        1 MOL      0.318099
     40 H20        -3.8070    9.8970    2.4100 hn        1 MOL      0.318099
     41 N4         -3.4900    3.8040   -1.2350 n         1 MOL     -0.225783
     42 C13        -4.2340    3.6160   -2.5030 c3        1 MOL      0.009303
     43 C14        -5.4160    2.5400   -2.5040 c         1 MOL      0.413342
     44 O6         -6.1170    2.3910   -3.4950 o         1 MOL     -0.478593
     45 C15        -3.2580    3.3860   -3.7010 c3        1 MOL     -0.131703
     46 C16        -2.2930    2.1930   -3.6030 c         1 MOL      0.900658
     47 O7         -2.5450    1.2930   -2.8220 o         1 MOL     -0.743061
     48 O8         -1.3330    2.1590   -4.3920 o         1 MOL     -0.743061
     49 H21        -2.9310    2.9960   -1.0080 hn        1 MOL      0.158295
     50 H22        -4.7860    4.5390   -2.6470 h1        1 MOL      0.057137
     51 H23        -2.5840    4.2530   -3.7300 hc        1 MOL      0.008144
     52 H24        -3.8210    3.2570   -4.6300 hc        1 MOL      0.008144
     53 N5         -5.6050    1.9250   -1.3270 n         1 MOL     -0.004680
     54 C17        -6.7580    1.0650   -0.9750 c3        1 MOL     -0.299884
     55 C18        -6.9380   -0.1150   -1.9420 c         1 MOL      0.633035
     56 O9         -7.5790    0.0110   -3.0260 o         1 MOL     -0.547601
     57 H25        -4.8810    2.1040   -0.6500 hn        1 MOL      0.027501
     58 H26        -7.7290    1.5590   -1.0380 h1        1 MOL      0.113634
     59 H27        -6.6550    0.6800    0.0380 h1        1 MOL      0.113634
     60 N6         -6.4530   -1.2650   -1.5000 n         1 MOL     -0.314707
     61 C19        -6.6570   -2.6370   -2.1040 c3        1 MOL     -0.005032
     62 C20        -6.8420   -3.7330   -1.0220 c         1 MOL      0.458858
     63 O10        -7.1240   -4.8530   -1.3680 o         1 MOL     -0.518960
     64 C21        -5.5270   -3.0390   -3.0330 c3        1 MOL      0.030817
     65 C22        -4.1690   -2.4630   -2.5110 c         1 MOL      0.664679
     66 O11        -3.8030   -2.7310   -1.3580 o         1 MOL     -0.691434
     67 O12        -3.5110   -1.7120   -3.1730 o         1 MOL     -0.691434
     68 H28        -5.9630   -1.2010   -0.6180 hn        1 MOL      0.035621
     69 H29        -7.6430   -2.6660   -2.5670 h1        1 MOL      0.078182
     70 H30        -5.8030   -2.7060   -4.0360 hc        1 MOL      0.006297
     71 H31        -5.4530   -4.1140   -3.2060 hc        1 MOL      0.006297
     72 N7         -6.7140   -3.4450    0.2950 n         1 MOL     -0.325413
     73 C23        -6.5670   -4.3870    1.3540 c3        1 MOL     -0.082858
     74 C24        -5.0810   -4.8060    1.5230 c         1 MOL      0.589207
     75 O13        -4.8570   -5.8180    2.1430 o         1 MOL     -0.592935
     76 H32        -6.4200   -2.5090    0.5440 hn        1 MOL      0.251404
     77 H33        -7.1430   -5.2670    1.1040 h1        1 MOL      0.084410
     78 H34        -6.9020   -3.9540    2.3080 h1        1 MOL      0.084410
     79 N8         -4.0150   -4.1530    0.9820 n         1 MOL     -0.351438
     80 C25        -2.6030   -4.5660    1.1900 c3        1 MOL     -0.101386
     81 C26        -1.5630   -3.4440    1.2760 c         1 MOL      0.720455
     82 O14        -1.8270   -2.3320    0.7880 o         1 MOL     -0.680770
     83 C27        -2.0500   -5.3780   -0.0550 c3        1 MOL      0.586029
     84 C28        -2.3630   -6.9220   -0.0280 c3        1 MOL     -0.693060
     85 O15        -2.5370   -4.9440   -1.2940 oh        1 MOL     -0.637902
     86 H35        -4.1050   -3.3040    0.4480 hn        1 MOL      0.222774
     87 H36        -2.4730   -5.1710    2.0830 h1        1 MOL      0.087765
     88 H37        -0.9690   -5.2620   -0.0320 h1        1 MOL     -0.068578
     89 H38        -3.2310   -4.3370   -1.0540 ho        1 MOL      0.386120
     90 H39        -3.4440   -7.0910   -0.0460 hc        1 MOL      0.174994
     91 H40        -2.0480   -7.4070   -0.9620 hc        1 MOL      0.174994
     92 H41        -1.8580   -7.1530    0.9050 hc        1 MOL      0.174994
     93 N9         -0.3890   -3.6970    1.8850 n         1 MOL     -0.655780
     94 C29         0.7090   -2.7300    2.0840 c3        1 MOL      0.094974
     95 C30         1.9470   -3.3440    1.3910 c         1 MOL      0.487102
     96 O16         2.2680   -4.5330    1.6540 o         1 MOL     -0.565842
     97 C31         1.0850   -2.5620    3.6340 c3        1 MOL      0.148034
     98 C32        -0.1700   -2.3730    4.4860 c3        1 MOL      0.017318
     99 C33         2.0590   -1.3500    3.6530 c3        1 MOL     -0.480237
    100 C34         0.2510   -2.2780    5.9950 c3        1 MOL     -0.107493
    101 H42        -0.2020   -4.6330    2.2160 hn        1 MOL      0.300659
    102 H43         0.4370   -1.7640    1.6630 h1        1 MOL      0.176490
    103 H44         1.5930   -3.4270    4.0680 hc        1 MOL     -0.013305
    104 H45        -0.9910   -3.0690    4.3600 hc        1 MOL      0.013342
    105 H46        -0.5390   -1.4100    4.1250 hc        1 MOL      0.013342
    106 H47         2.9380   -1.6010    3.0520 hc        1 MOL      0.105320
    107 H48         1.6150   -0.4930    3.1610 hc        1 MOL      0.105320
    108 H49         2.4690   -1.1220    4.6410 hc        1 MOL      0.105320
    109 H50         0.5880   -3.2830    6.2650 hc        1 MOL      0.026512
    110 H51         0.9500   -1.4920    6.2660 hc        1 MOL      0.026512
    111 H52        -0.6550   -2.2290    6.5970 hc        1 MOL      0.026512
    112 N10         2.6150   -2.6130    0.4770 n         1 MOL     -0.134634
    113 C35         3.8590   -2.8700   -0.1480 c3        1 MOL      0.005061
    114 C36         5.0900   -2.3580    0.6360 c         1 MOL      0.330962
    115 O17         4.9450   -1.5730    1.5890 o         1 MOL     -0.289353
    116 C37         3.8320   -2.2050   -1.5420 c3        1 MOL      0.052938
    117 C38         2.7370   -2.7330   -2.3910 c3        1 MOL     -0.578011
    118 O18         3.7300   -0.8300   -1.4900 oh        1 MOL     -0.281045
    119 H53         2.2390   -1.6990    0.2530 hn        1 MOL      0.137052
    120 H54         4.0530   -3.9070   -0.3980 h1        1 MOL      0.086051
    121 H55         4.7320   -2.4110   -2.1140 h1        1 MOL      0.023203
    122 H56         3.7460   -0.6080   -2.4270 ho        1 MOL      0.345566
    123 H57         2.8120   -2.3300   -3.4040 hc        1 MOL      0.167386
    124 H58         2.7950   -3.8240   -2.4170 hc        1 MOL      0.167386
    125 H59         1.7330   -2.5380   -2.0030 hc        1 MOL      0.167386
    126 N11         6.3180   -2.7580    0.2390 n         1 MOL     -0.337169
    127 C39         7.5680   -2.0340    0.6130 c3        1 MOL     -0.155249
    128 C40         7.5820   -0.5800    0.3780 c         1 MOL      0.137792
    129 O19         8.1380    0.2140    1.2110 o         1 MOL     -0.441001
    130 C41         8.7940   -2.7450   -0.0520 c3        1 MOL      0.435949
    131 C42         9.2320   -4.1210    0.5150 c3        1 MOL     -0.465268
    132 O20         8.5520   -2.7530   -1.4680 oh        1 MOL     -0.647805
    133 H60         6.4680   -3.4130   -0.5080 hn        1 MOL      0.291716
    134 H61         7.7140   -2.1310    1.6900 h1        1 MOL      0.153227
    135 H62         9.7150   -2.1850    0.0560 h1        1 MOL      0.021474
    136 H63         9.2370   -2.2830   -1.9510 ho        1 MOL      0.388239
    137 H64        10.1140   -4.3340   -0.0870 hc        1 MOL      0.132695
    138 H65         9.4640   -4.0530    1.5780 hc        1 MOL      0.132695
    139 H66         8.4330   -4.8560    0.4480 hc        1 MOL      0.132695
    140 N12         7.0160   -0.0640   -0.7580 n         1 MOL      0.031439
    141 C43         7.0440    1.3880   -1.0810 c3        1 MOL     -0.168293
    142 C44         6.0620    2.1390   -0.1470 c         1 MOL      0.386643
    143 O21         6.2350    3.3070    0.1400 o         1 MOL     -0.515723
    144 C45         6.6610    1.5610   -2.5640 c3        1 MOL     -0.233093
    145 C46         7.6180    0.7170   -3.5410 c3        1 MOL      0.212581
    146 C47         7.8370    1.2920   -4.9480 c3        1 MOL     -0.185617
    147 C48         8.7550    2.5260   -4.9440 c3        1 MOL     -0.005684
    148 N13        10.1800    2.3470   -4.7990 n4        1 MOL     -0.278756
    149 H67         6.6900   -0.6240   -1.5290 hn        1 MOL      0.116153
    150 H68         8.0520    1.7420   -0.8580 h1        1 MOL      0.116406
    151 H69         6.7180    2.6030   -2.8730 hc        1 MOL      0.088954
    152 H70         5.6160    1.3030   -2.7730 hc        1 MOL      0.088954
    153 H71         7.2380   -0.3040   -3.6700 hc        1 MOL     -0.024243
    154 H72         8.5650    0.5120   -3.0410 hc        1 MOL     -0.024243
    155 H73         6.8720    1.6070   -5.3500 hc        1 MOL      0.082560
    156 H74         8.2030    0.5390   -5.6400 hc        1 MOL      0.082560
    157 H75         8.3750    3.2930   -4.2760 hx        1 MOL      0.106106
    158 H76         8.5220    3.0020   -5.8940 hx        1 MOL      0.106106
    159 H77        10.7350    3.1820   -4.8230 hn        1 MOL      0.266652
    160 H78        10.3910    1.8620   -3.9420 hn        1 MOL      0.266652
    161 H79        10.6050    1.8440   -5.5700 hn        1 MOL      0.266652
    162 N14         5.0150    1.4650    0.3200 n         1 MOL      0.040955
    163 C49         3.9880    2.0520    1.1750 c3        1 MOL     -0.139276
    164 C50         4.4640    1.9870    2.6380 c         1 MOL      0.471906
    165 O22         4.2320    2.9700    3.3050 o         1 MOL     -0.552314
    166 C51         2.7310    1.2690    1.0190 c3        1 MOL      0.071127
    167 C52         1.9330    1.6410   -0.2280 c3        1 MOL     -0.214453
    168 C53         0.5930    0.8730   -0.3520 c         1 MOL      0.753490
    169 O23         0.5650   -0.4020   -0.2010 o         1 MOL     -0.748281
    170 O24        -0.4980    1.4820   -0.5280 o         1 MOL     -0.748281
    171 H80         4.6950    0.6270   -0.1390 hn        1 MOL      0.035086
    172 H81         3.9260    3.1200    0.9510 h1        1 MOL      0.093919
    173 H82         2.1610    1.3920    1.9440 hc        1 MOL      0.064294
    174 H83         2.9900    0.2210    0.8470 hc        1 MOL      0.064294
    175 H84         2.4860    1.3850   -1.1340 hc        1 MOL      0.019194
    176 H85         1.8400    2.7250   -0.2390 hc        1 MOL      0.019194
    177 N15         5.1230    0.9150    3.0560 n         1 MOL     -0.129922
    178 C54         5.7260    0.7810    4.3780 c3        1 MOL     -0.362011
    179 H86         5.5550   -0.2270    4.7560 h1        1 MOL      0.125197
    180 H87         6.7980    0.9650    4.3090 h1        1 MOL      0.125197
    181 H88         5.2760    1.5040    5.0580 h1        1 MOL      0.125197
    182 H89         5.1080    0.1400    2.4040 hn        1 MOL      0.168669
    183 Ca1        -1.8490   -0.7920   -1.2800 Ca        1 MOL      1.747968
    184 O25        -0.7490   -3.1040   -2.0370 oh        1 MOL     -0.867195
    185 H90        -1.1930   -3.8510   -1.6400 ho        1 MOL      0.402465
    186 H91        -0.6150   -3.3690   -2.9560 ho        1 MOL      0.402465
    187 O26        -0.2440   -0.4390   -3.4270 oh        1 MOL     -0.867195
    188 H92        -0.5680    0.3820   -3.7940 ho        1 MOL      0.402465
    189 H93         0.1230   -0.9080   -4.1760 ho        1 MOL      0.402465
@<TRIPOS>BOND
     1    1    2 1   
     2    1    4 1   
     3    1    5 1   
     4    1    6 1   
     5    2    3 2   
     6    2    7 1   
     7    7    8 1   
     8    7   15 1   
     9    8    9 1   
    10    8   11 1   
    11    8   16 1   
    12    9   10 2   
    13    9   19 1   
    14   11   12 1   
    15   11   17 1   
    16   11   18 1   
    17   12   13 1   
    18   12   14 1   
    19   19   20 1   
    20   19   28 1   
    21   20   21 1   
    22   20   23 1   
    23   20   29 1   
    24   21   22 2   
    25   21   41 1   
    26   23   24 1   
    27   23   30 1   
    28   23   31 1   
    29   24   25 1   
    30   24   32 1   
    31   24   33 1   
    32   25   26 1   
    33   25   34 1   
    34   25   35 1   
    35   26   27 1   
    36   26   36 1   
    37   26   37 1   
    38   27   38 1   
    39   27   39 1   
    40   27   40 1   
    41   41   42 1   
    42   41   49 1   
    43   42   43 1   
    44   42   45 1   
    45   42   50 1   
    46   43   44 2   
    47   43   53 1   
    48   45   46 1   
    49   45   51 1   
    50   45   52 1   
    51   46   47 1   
    52   46   48 1   
    53   53   54 1   
    54   53   57 1   
    55   54   55 1   
    56   54   58 1   
    57   54   59 1   
    58   55   56 2   
    59   55   60 1   
    60   60   61 1   
    61   60   68 1   
    62   61   62 1   
    63   61   64 1   
    64   61   69 1   
    65   62   63 2   
    66   62   72 1   
    67   64   65 1   
    68   64   70 1   
    69   64   71 1   
    70   65   66 1   
    71   65   67 1   
    72   72   73 1   
    73   72   76 1   
    74   73   74 1   
    75   73   77 1   
    76   73   78 1   
    77   74   75 2   
    78   74   79 1   
    79   79   80 1   
    80   79   86 1   
    81   80   81 1   
    82   80   83 1   
    83   80   87 1   
    84   81   82 2   
    85   81   93 1   
    86   83   84 1   
    87   83   85 1   
    88   83   88 1   
    89   84   90 1   
    90   84   91 1   
    91   84   92 1   
    92   85   89 1   
    93   93   94 1   
    94   93  101 1   
    95   94   95 1   
    96   94   97 1   
    97   94  102 1   
    98   95   96 2   
    99   95  112 1   
   100   97   98 1   
   101   97   99 1   
   102   97  103 1   
   103   98  100 1   
   104   98  104 1   
   105   98  105 1   
   106   99  106 1   
   107   99  107 1   
   108   99  108 1   
   109  100  109 1   
   110  100  110 1   
   111  100  111 1   
   112  112  113 1   
   113  112  119 1   
   114  113  114 1   
   115  113  116 1   
   116  113  120 1   
   117  114  115 2   
   118  114  126 1   
   119  116  117 1   
   120  116  118 1   
   121  116  121 1   
   122  117  123 1   
   123  117  124 1   
   124  117  125 1   
   125  118  122 1   
   126  126  127 1   
   127  126  133 1   
   128  127  128 1   
   129  127  130 1   
   130  127  134 1   
   131  128  129 2   
   132  128  140 1   
   133  130  131 1   
   134  130  132 1   
   135  130  135 1   
   136  131  137 1   
   137  131  138 1   
   138  131  139 1   
   139  132  136 1   
   140  140  141 1   
   141  140  149 1   
   142  141  142 1   
   143  141  144 1   
   144  141  150 1   
   145  142  143 2   
   146  142  162 1   
   147  144  145 1   
   148  144  151 1   
   149  144  152 1   
   150  145  146 1   
   151  145  153 1   
   152  145  154 1   
   153  146  147 1   
   154  146  155 1   
   155  146  156 1   
   156  147  148 1   
   157  147  157 1   
   158  147  158 1   
   159  148  159 1   
   160  148  160 1   
   161  148  161 1   
   162  162  163 1   
   163  162  171 1   
   164  163  164 1   
   165  163  166 1   
   166  163  172 1   
   167  164  165 2   
   168  164  177 1   
   169  166  167 1   
   170  166  173 1   
   171  166  174 1   
   172  167  168 1   
   173  167  175 1   
   174  167  176 1   
   175  168  169 1   
   176  168  170 1   
   177  177  178 1   
   178  177  182 1   
   179  178  179 1   
   180  178  180 1   
   181  178  181 1   
   182  184  185 1   
   183  184  186 1   
   184  187  188 1   
   185  187  189 1   
@<TRIPOS>SUBSTRUCTURE
     1 MOL         1 TEMP              0 ****  ****    0 ROOT
