@<TRIPOS>MOLECULE
MOL
  183   181     1     0     0
SMALL
resp


@<TRIPOS>ATOM
      1 C1         -0.7590    2.8280    5.9340 c3        1 MOL     -0.356400
      2 C2         -1.1400    2.5010    4.4550 c         1 MOL      0.807088
      3 O1         -0.4130    2.9330    3.5930 o         1 MOL     -0.578796
      4 H1         -1.6590    2.8260    6.5500 hc        1 MOL      0.083244
      5 H2         -0.0640    2.0740    6.3050 hc        1 MOL      0.083244
      6 H3         -0.2900    3.8100    5.9810 hc        1 MOL      0.083244
      7 N1         -2.2560    1.7580    4.1590 n         1 MOL     -0.705173
      8 C3         -2.8770    1.7400    2.7780 c3        1 MOL      0.236681
      9 C4         -3.1440    3.1910    2.2950 c         1 MOL      0.421575
     10 O2         -3.8030    3.9530    3.0690 o         1 MOL     -0.578098
     11 C5         -4.2090    0.8890    2.7940 c3        1 MOL     -0.245294
     12 C6         -4.7540    0.5830    1.4020 c         1 MOL      0.819732
     13 O3         -4.1420    1.1240    0.4170 o         1 MOL     -0.661388
     14 O4         -5.7870   -0.0710    1.3110 o         1 MOL     -0.661388
     15 H4         -2.8330    1.4580    4.9310 hn        1 MOL      0.331665
     16 H5         -2.2250    1.3340    2.0040 h1        1 MOL     -0.053920
     17 H6         -5.0400    1.3970    3.2760 hc        1 MOL      0.046563
     18 H7         -4.0640   -0.0960    3.2400 hc        1 MOL      0.046563
     19 N2         -2.8910    3.5940    1.0470 n         1 MOL     -0.113503
     20 C7         -3.2400    4.8900    0.4840 c3        1 MOL     -0.258852
     21 C8         -4.4460    4.7830   -0.4360 c         1 MOL      0.739786
     22 O5         -5.1500    5.7620   -0.5270 o         1 MOL     -0.635357
     23 C9         -1.9410    5.4250   -0.2490 c3        1 MOL      0.399735
     24 C10        -0.7740    5.5280    0.7920 c3        1 MOL     -0.021329
     25 C11        -2.1680    6.7910   -0.9280 c3        1 MOL     -0.327532
     26 C12         0.6120    5.8840    0.1250 c3        1 MOL     -0.051790
     27 H8         -2.4610    3.0240    0.3390 hn        1 MOL      0.201161
     28 H9         -3.5150    5.5570    1.3070 h1        1 MOL      0.076446
     29 H10        -1.6390    4.7220   -1.0340 hc        1 MOL     -0.001288
     30 H11        -0.6260    4.6120    1.3670 hc        1 MOL     -0.000290
     31 H12        -1.0450    6.3740    1.4100 hc        1 MOL     -0.000290
     32 H13        -1.1940    7.1530   -1.2380 hc        1 MOL      0.051908
     33 H14        -2.7390    6.7410   -1.8630 hc        1 MOL      0.051908
     34 H15        -2.4730    7.4850   -0.1400 hc        1 MOL      0.051908
     35 H16         0.7680    6.9650    0.0640 hc        1 MOL      0.002094
     36 H17         1.4510    5.5290    0.7090 hc        1 MOL      0.002094
     37 H18         0.6440    5.4170   -0.8620 hc        1 MOL      0.002094
     38 N3         -4.6630    3.6530   -1.0400 n         1 MOL     -0.472970
     39 C13        -5.5090    3.5380   -2.2450 c3        1 MOL     -0.036058
     40 C14        -6.5880    2.4300   -2.1680 c         1 MOL      0.552481
     41 O6         -7.1980    2.0230   -3.1410 o         1 MOL     -0.526709
     42 C15        -4.7070    3.4770   -3.5200 c3        1 MOL      0.011590
     43 C16        -3.9510    2.1870   -3.6010 c         1 MOL      0.654622
     44 O7         -3.8390    1.7150   -4.7960 o         1 MOL     -0.722204
     45 O8         -3.4560    1.5320   -2.6680 o         1 MOL     -0.722204
     46 H19        -4.2070    2.8700   -0.5790 hn        1 MOL      0.161484
     47 H20        -6.1600    4.4150   -2.3310 h1        1 MOL      0.058193
     48 H21        -3.9720    4.2840   -3.5360 hc        1 MOL      0.005076
     49 H22        -5.2980    3.5920   -4.4270 hc        1 MOL      0.005076
     50 N4         -6.8220    1.9280   -0.9570 n         1 MOL     -0.324059
     51 C17        -7.9990    1.2450   -0.5030 c3        1 MOL     -0.174879
     52 C18        -8.2340   -0.1440   -1.0900 c         1 MOL      0.509814
     53 O9         -9.3710   -0.5290   -1.3170 o         1 MOL     -0.606839
     54 H23        -6.1650    2.1840   -0.2370 hn        1 MOL      0.251390
     55 H24        -8.8560    1.8800   -0.7320 h1        1 MOL      0.086122
     56 H25        -7.9100    1.0300    0.5590 h1        1 MOL      0.086122
     57 N5         -7.1720   -0.8620   -1.2210 n         1 MOL     -0.162566
     58 C19        -7.1180   -2.3020   -1.5190 c3        1 MOL      0.019172
     59 C20        -7.0430   -3.1690   -0.2530 c         1 MOL      0.333758
     60 O10        -7.2110   -4.3900   -0.3820 o         1 MOL     -0.522151
     61 C21        -5.9460   -2.7130   -2.4300 c3        1 MOL     -0.195361
     62 C22        -4.6110   -2.1030   -1.9700 c         1 MOL      0.664965
     63 O11        -4.3620   -1.8240   -0.7900 o         1 MOL     -0.720857
     64 O12        -3.7260   -1.7600   -2.8120 o         1 MOL     -0.720857
     65 H26        -6.3810   -0.4730   -0.7360 hn        1 MOL      0.155506
     66 H27        -8.0110   -2.6430   -2.0390 h1        1 MOL      0.089072
     67 H28        -6.0440   -2.4930   -3.4900 hc        1 MOL      0.078933
     68 H29        -5.8100   -3.7850   -2.3440 hc        1 MOL      0.078933
     69 N6         -6.7700   -2.5240    0.8940 n         1 MOL     -0.170595
     70 C23        -6.6600   -3.2750    2.1440 c3        1 MOL     -0.089230
     71 C24        -5.2220   -3.9310    2.3960 c         1 MOL      0.514562
     72 O13        -4.9840   -4.7090    3.3170 o         1 MOL     -0.586654
     73 H30        -6.7450   -1.5230    0.8560 hn        1 MOL      0.233866
     74 H31        -7.3380   -4.1220    2.1450 h1        1 MOL      0.065183
     75 H32        -6.9650   -2.6100    2.9460 h1        1 MOL      0.065183
     76 N7         -4.2510   -3.6710    1.4810 n         1 MOL     -0.220835
     77 C25        -2.8720   -4.1620    1.4990 c3        1 MOL      0.311626
     78 C26        -1.8390   -3.0550    1.3840 c         1 MOL      0.324929
     79 O14        -1.9800   -1.9280    0.8450 o         1 MOL     -0.538795
     80 C27        -2.5570   -5.2730    0.4620 c3        1 MOL     -0.403131
     81 C28        -2.8050   -4.8680   -1.0270 c3        1 MOL      0.030803
     82 C29        -2.3430   -5.9880   -1.9010 c         1 MOL      0.603589
     83 N8         -2.3060   -5.6050   -3.1670 n         1 MOL     -0.781251
     84 O15        -2.3330   -7.1690   -1.6400 o         1 MOL     -0.564196
     85 H33        -4.4320   -2.9540    0.7940 hn        1 MOL      0.106165
     86 H34        -2.6800   -4.5820    2.4870 h1        1 MOL     -0.007093
     87 H35        -3.1910   -6.1030    0.7550 hc        1 MOL      0.101630
     88 H36        -1.4960   -5.4820    0.5980 hc        1 MOL      0.101630
     89 H37        -2.3500   -3.9570   -1.4060 hc        1 MOL      0.047962
     90 H38        -3.8720   -4.6760   -1.0740 hc        1 MOL      0.047962
     91 H39        -2.4510   -4.6420   -3.4500 hn        1 MOL      0.346761
     92 H40        -2.0940   -6.3080   -3.8570 hn        1 MOL      0.346761
     93 N9         -0.6940   -3.3590    1.9620 n         1 MOL     -0.250327
     94 C30         0.3630   -2.3600    2.2250 c3        1 MOL     -0.316388
     95 C31         1.6430   -2.8890    1.5890 c         1 MOL      0.499744
     96 O16         2.3220   -3.7760    2.1240 o         1 MOL     -0.546651
     97 C32         0.4810   -2.1140    3.7950 c3        1 MOL      0.239684
     98 C33         1.7130   -1.3600    4.2740 c3        1 MOL     -0.235344
     99 C34        -0.7050   -1.2630    4.2310 c3        1 MOL     -0.235344
    100 H41        -0.7080   -4.2480    2.4510 hn        1 MOL      0.270494
    101 H42         0.0880   -1.4040    1.7850 h1        1 MOL      0.247713
    102 H43         0.3870   -3.0290    4.3800 hc        1 MOL     -0.019158
    103 H44         1.6560   -1.3180    5.3660 hc        1 MOL      0.050120
    104 H45         2.6130   -1.8880    3.9510 hc        1 MOL      0.050120
    105 H46         1.6980   -0.3990    3.7540 hc        1 MOL      0.050120
    106 H47        -0.8380   -0.4630    3.5150 hc        1 MOL      0.050120
    107 H48        -1.5870   -1.9030    4.2770 hc        1 MOL      0.050120
    108 H49        -0.5860   -0.7980    5.2180 hc        1 MOL      0.050120
    109 N10         1.9520   -2.2500    0.4630 n         1 MOL     -0.285286
    110 C35         3.1010   -2.5340   -0.3180 c3        1 MOL      0.039706
    111 C36         4.3190   -1.9680    0.4760 c         1 MOL      0.321864
    112 O17         4.1360   -1.0020    1.2190 o         1 MOL     -0.302347
    113 C37         2.9710   -1.9320   -1.7240 c3        1 MOL     -0.294152
    114 C38         4.0050   -2.4280   -2.7160 c         1 MOL      0.671586
    115 N11         3.7890   -3.6170   -3.3660 n         1 MOL     -0.820355
    116 O18         5.0490   -1.8460   -2.8650 o         1 MOL     -0.467844
    117 H50         1.3740   -1.4390    0.2640 hn        1 MOL      0.265028
    118 H51         3.1180   -3.6250   -0.3690 h1        1 MOL      0.060543
    119 H52         3.0830   -0.8560   -1.5990 hc        1 MOL      0.090099
    120 H53         1.9790   -2.0670   -2.1610 hc        1 MOL      0.090099
    121 H54         2.8690   -4.0380   -3.3340 hn        1 MOL      0.366806
    122 H55         4.5280   -4.0810   -3.8860 hn        1 MOL      0.366806
    123 N12         5.5470   -2.4230    0.1800 n         1 MOL     -0.366240
    124 C39         6.8390   -1.7550    0.4560 c3        1 MOL      0.074783
    125 C40         6.7230   -0.2530    0.1170 c         1 MOL      0.700402
    126 O19         6.9750    0.5030    1.0220 o         1 MOL     -0.529211
    127 C41         7.9230   -2.4640   -0.3240 c3        1 MOL      0.070626
    128 C42         9.3690   -1.9830   -0.0990 ca        1 MOL     -0.038532
    129 C43         9.7840   -1.7220    1.2060 ca        1 MOL     -0.167334
    130 C44        10.1140   -1.5400   -1.1720 ca        1 MOL     -0.167334
    131 C45        11.0880   -1.1550    1.4270 ca        1 MOL     -0.243235
    132 C46        11.2760   -0.8110   -0.9320 ca        1 MOL     -0.243235
    133 C47        11.8070   -0.6670    0.3470 ca        1 MOL      0.352468
    134 O20        12.9740   -0.0200    0.5090 oh        1 MOL     -0.523911
    135 H56         5.5180   -3.3020   -0.3190 hn        1 MOL      0.214671
    136 H57         7.0070   -1.9740    1.5130 h1        1 MOL      0.045296
    137 H58         7.5980   -2.4840   -1.3590 hc        1 MOL      0.001505
    138 H59         8.0210   -3.4800    0.0570 hc        1 MOL      0.001505
    139 H60         9.1550   -1.9260    2.0690 ha        1 MOL      0.138198
    140 H61         9.7700   -1.7150   -2.1810 ha        1 MOL      0.138198
    141 H62        11.5100   -1.0570    2.4080 ha        1 MOL      0.140874
    142 H63        11.7100   -0.3210   -1.7850 ha        1 MOL      0.140874
    143 H64        13.5230    0.0170   -0.2730 ho        1 MOL      0.373188
    144 N13         6.1450    0.1780   -1.0580 n         1 MOL     -0.577985
    145 C48         6.1850    1.6370   -1.2970 c3        1 MOL      0.008880
    146 C49         5.4870    2.3730   -0.1970 c         1 MOL      0.246881
    147 O21         5.8240    3.5180    0.0970 o         1 MOL     -0.496043
    148 C50         5.7040    2.0160   -2.7340 c3        1 MOL     -0.113338
    149 C51         6.7120    1.5330   -3.8030 c3        1 MOL     -0.028437
    150 C52         6.5730    2.0270   -5.2030 c         1 MOL      0.785752
    151 O22         7.5780    2.1430   -5.8880 o         1 MOL     -0.774358
    152 O23         5.4610    2.2690   -5.6240 o         1 MOL     -0.774358
    153 H65         5.8660   -0.4510   -1.7990 hn        1 MOL      0.315747
    154 H66         7.2280    1.9580   -1.2430 h1        1 MOL      0.130242
    155 H67         5.8390    3.0970   -2.8310 hc        1 MOL      0.060546
    156 H68         4.7130    1.6290   -2.9370 hc        1 MOL      0.060546
    157 H69         6.5070    0.4640   -3.8540 hc        1 MOL     -0.044548
    158 H70         7.7370    1.7380   -3.5040 hc        1 MOL     -0.044548
    159 N14         4.3420    1.8280    0.3560 n         1 MOL     -0.054091
    160 C53         3.4280    2.4020    1.4130 c3        1 MOL     -0.128609
    161 C54         3.9650    2.2510    2.8230 c         1 MOL      0.472675
    162 O24         3.7290    3.1400    3.6900 o         1 MOL     -0.582038
    163 C55         2.0240    1.7280    1.2940 c3        1 MOL      0.340865
    164 C56         1.3230    2.1830    0.0100 c3        1 MOL      0.056670
    165 C57         0.0370    1.3310   -0.2240 c         1 MOL      0.692775
    166 O25        -0.9990    1.9270   -0.6410 o         1 MOL     -0.780971
    167 O26         0.0430    0.0950   -0.1250 o         1 MOL     -0.780971
    168 H71         4.1340    0.9340   -0.0460 hn        1 MOL      0.173460
    169 H72         3.3580    3.4810    1.2600 h1        1 MOL      0.093177
    170 H73         1.3910    2.0290    2.1280 hc        1 MOL     -0.064978
    171 H74         2.1900    0.6500    1.3290 hc        1 MOL     -0.064978
    172 H75         2.0460    2.0990   -0.7970 hc        1 MOL     -0.065577
    173 H76         1.1450    3.2430    0.1310 hc        1 MOL     -0.065577
    174 N15         4.6550    1.1420    3.0740 n         1 MOL     -0.037991
    175 C58         5.4100    0.9200    4.3100 c3        1 MOL     -0.325816
    176 H77         6.4780    0.9600    4.0940 h1        1 MOL      0.103932
    177 H78         5.1560    1.6940    5.0340 h1        1 MOL      0.103932
    178 H79         5.1580   -0.0580    4.7190 h1        1 MOL      0.103932
    179 H80         4.8930    0.4920    2.3360 hn        1 MOL      0.065873
    180 Ca1        -2.3100   -0.2170   -1.1100 Ca        1 MOL      1.756400
    181 O27        -0.2290   -0.6570   -2.7720 oh        1 MOL     -0.882545
    182 H81         0.5170   -0.0760   -2.6470 ho        1 MOL      0.437374
    183 H82        -0.2350   -0.8520   -3.7060 ho        1 MOL      0.437374
@<TRIPOS>BOND
     1    1    2 1   
     2    1    4 1   
     3    1    5 1   
     4    1    6 1   
     5    2    3 2   
     6    2    7 1   
     7    7    8 1   
     8    7   15 1   
     9    8    9 1   
    10    8   11 1   
    11    8   16 1   
    12    9   10 2   
    13    9   19 1   
    14   11   12 1   
    15   11   17 1   
    16   11   18 1   
    17   12   13 1   
    18   12   14 1   
    19   19   20 1   
    20   19   27 1   
    21   20   21 1   
    22   20   23 1   
    23   20   28 1   
    24   21   22 2   
    25   21   38 1   
    26   23   24 1   
    27   23   25 1   
    28   23   29 1   
    29   24   26 1   
    30   24   30 1   
    31   24   31 1   
    32   25   32 1   
    33   25   33 1   
    34   25   34 1   
    35   26   35 1   
    36   26   36 1   
    37   26   37 1   
    38   38   39 1   
    39   38   46 1   
    40   39   40 1   
    41   39   42 1   
    42   39   47 1   
    43   40   41 2   
    44   40   50 1   
    45   42   43 1   
    46   42   48 1   
    47   42   49 1   
    48   43   44 1   
    49   43   45 1   
    50   50   51 1   
    51   50   54 1   
    52   51   52 1   
    53   51   55 1   
    54   51   56 1   
    55   52   53 2   
    56   52   57 1   
    57   57   58 1   
    58   57   65 1   
    59   58   59 1   
    60   58   61 1   
    61   58   66 1   
    62   59   60 2   
    63   59   69 1   
    64   61   62 1   
    65   61   67 1   
    66   61   68 1   
    67   62   63 1   
    68   62   64 1   
    69   69   70 1   
    70   69   73 1   
    71   70   71 1   
    72   70   74 1   
    73   70   75 1   
    74   71   72 2   
    75   71   76 1   
    76   76   77 1   
    77   76   85 1   
    78   77   78 1   
    79   77   80 1   
    80   77   86 1   
    81   78   79 2   
    82   78   93 1   
    83   80   81 1   
    84   80   87 1   
    85   80   88 1   
    86   81   82 1   
    87   81   89 1   
    88   81   90 1   
    89   82   83 1   
    90   82   84 2   
    91   83   91 1   
    92   83   92 1   
    93   93   94 1   
    94   93  100 1   
    95   94   95 1   
    96   94   97 1   
    97   94  101 1   
    98   95   96 2   
    99   95  109 1   
   100   97   98 1   
   101   97   99 1   
   102   97  102 1   
   103   98  103 1   
   104   98  104 1   
   105   98  105 1   
   106   99  106 1   
   107   99  107 1   
   108   99  108 1   
   109  109  110 1   
   110  109  117 1   
   111  110  111 1   
   112  110  113 1   
   113  110  118 1   
   114  111  112 2   
   115  111  123 1   
   116  113  114 1   
   117  113  119 1   
   118  113  120 1   
   119  114  115 1   
   120  114  116 2   
   121  115  121 1   
   122  115  122 1   
   123  123  124 1   
   124  123  135 1   
   125  124  125 1   
   126  124  127 1   
   127  124  136 1   
   128  125  126 2   
   129  125  144 1   
   130  127  128 1   
   131  127  137 1   
   132  127  138 1   
   133  128  129 ar  
   134  128  130 ar  
   135  129  131 ar  
   136  129  139 1   
   137  130  132 ar  
   138  130  140 1   
   139  131  133 ar  
   140  131  141 1   
   141  132  133 ar  
   142  132  142 1   
   143  133  134 1   
   144  134  143 1   
   145  144  145 1   
   146  144  153 1   
   147  145  146 1   
   148  145  148 1   
   149  145  154 1   
   150  146  147 2   
   151  146  159 1   
   152  148  149 1   
   153  148  155 1   
   154  148  156 1   
   155  149  150 1   
   156  149  157 1   
   157  149  158 1   
   158  150  151 1   
   159  150  152 1   
   160  159  160 1   
   161  159  168 1   
   162  160  161 1   
   163  160  163 1   
   164  160  169 1   
   165  161  162 2   
   166  161  174 1   
   167  163  164 1   
   168  163  170 1   
   169  163  171 1   
   170  164  165 1   
   171  164  172 1   
   172  164  173 1   
   173  165  166 1   
   174  165  167 1   
   175  174  175 1   
   176  174  179 1   
   177  175  176 1   
   178  175  177 1   
   179  175  178 1   
   180  181  182 1   
   181  181  183 1   
@<TRIPOS>SUBSTRUCTURE
     1 MOL         1 TEMP              0 ****  ****    0 ROOT
