@<TRIPOS>MOLECULE
MOL
  176   174     1     0     0
SMALL
resp


@<TRIPOS>ATOM
      1 C1          0.4270    4.6520    6.3350 c3        1 MOL     -0.386336
      2 C2          0.3140    4.0440    4.9480 c         1 MOL      0.698495
      3 O1          1.3850    3.7240    4.3790 o         1 MOL     -0.588363
      4 H1         -0.5530    4.6520    6.8120 hc        1 MOL      0.099676
      5 H2          1.1220    4.0640    6.9340 hc        1 MOL      0.099676
      6 H3          0.7920    5.6760    6.2550 hc        1 MOL      0.099676
      7 N1         -0.8770    3.7330    4.4760 n         1 MOL     -0.537388
      8 C3         -1.2610    3.2700    3.1130 c3        1 MOL      0.277103
      9 C4         -1.4700    4.4040    2.1270 c         1 MOL      0.405195
     10 O2         -2.0220    5.4760    2.4540 o         1 MOL     -0.545035
     11 C5         -2.4970    2.3010    3.1290 c3        1 MOL     -0.504792
     12 C6         -2.6490    1.5190    1.8070 c         1 MOL      1.058366
     13 O3         -3.0050    2.1260    0.7900 o         1 MOL     -0.850646
     14 O4         -2.5410    0.2690    1.7360 o         1 MOL     -0.850646
     15 H4         -1.7000    3.8880    5.0400 hn        1 MOL      0.304472
     16 H5         -0.4480    2.6570    2.7240 h1        1 MOL     -0.015492
     17 H6         -3.3840    2.9320    3.1850 hc        1 MOL      0.120261
     18 H7         -2.3700    1.5850    3.9420 hc        1 MOL      0.120261
     19 N2         -1.0820    4.2520    0.8190 n         1 MOL     -0.214433
     20 C7         -1.2270    5.2490   -0.2720 c3        1 MOL     -0.153809
     21 C8         -2.5430    5.1730   -1.0960 c         1 MOL      0.519556
     22 O5         -2.7850    6.1680   -1.8710 o         1 MOL     -0.601799
     23 C9          0.0510    4.9940   -1.1910 c3        1 MOL      0.033950
     24 C10         0.6210    6.2070   -2.0120 c3        1 MOL     -0.045156
     25 C11         1.9810    5.8870   -2.6590 c3        1 MOL     -0.105728
     26 C12         2.6220    7.0360   -3.4220 c3        1 MOL      0.225270
     27 N3          3.8160    6.6680   -4.1350 n4        1 MOL     -0.347755
     28 H8         -0.5700    3.3980    0.6410 hn        1 MOL      0.131960
     29 H9         -1.1180    6.2400    0.1630 h1        1 MOL      0.132496
     30 H10        -0.2020    4.3460   -2.0210 hc        1 MOL      0.063028
     31 H11         0.9170    4.6240   -0.6440 hc        1 MOL      0.063028
     32 H12         0.7170    7.0460   -1.3140 hc        1 MOL      0.033444
     33 H13        -0.0830    6.5150   -2.7840 hc        1 MOL      0.033444
     34 H14         1.8050    5.2320   -3.5210 hc        1 MOL      0.033214
     35 H15         2.6450    5.4260   -1.9410 hc        1 MOL      0.033214
     36 H16         2.7890    7.9580   -2.8550 hx        1 MOL      0.024291
     37 H17         1.9070    7.3570   -4.1800 hx        1 MOL      0.024291
     38 H18         4.1750    7.5190   -4.5460 hn        1 MOL      0.319653
     39 H19         4.4950    6.0950   -3.6450 hn        1 MOL      0.319653
     40 H20         3.5600    6.1160   -4.9400 hn        1 MOL      0.319653
     41 N4         -3.3440    4.1330   -1.0690 n         1 MOL     -0.415576
     42 C13        -4.4650    3.8920   -2.0010 c3        1 MOL      0.041165
     43 C14        -5.6640    3.3010   -1.3030 c         1 MOL      0.402206
     44 O6         -6.6860    3.1040   -1.9350 o         1 MOL     -0.516563
     45 C15        -4.0390    3.0470   -3.2030 c3        1 MOL     -0.022445
     46 C16        -3.3000    1.8150   -2.6930 c         1 MOL      0.679476
     47 O7         -2.0690    1.6630   -3.0540 o         1 MOL     -0.773745
     48 O8         -3.7700    1.0040   -1.8630 o         1 MOL     -0.773745
     49 H21        -3.0170    3.5030   -0.3500 hn        1 MOL      0.432391
     50 H22        -4.8320    4.8260   -2.4090 h1        1 MOL      0.107215
     51 H23        -3.2520    3.5920   -3.7310 hc        1 MOL      0.028647
     52 H24        -4.8540    2.9000   -3.9080 hc        1 MOL      0.028647
     53 N5         -5.6240    2.9330    0.0200 n         1 MOL     -0.251777
     54 C17        -6.6740    2.2370    0.7970 c3        1 MOL     -0.038115
     55 C18        -7.0620    0.7640    0.2920 c         1 MOL      0.427083
     56 O9         -8.1860    0.3090    0.5980 o         1 MOL     -0.541678
     57 H25        -4.8330    3.2780    0.5360 hn        1 MOL      0.183467
     58 H26        -7.4900    2.9270    0.9880 h1        1 MOL      0.078748
     59 H27        -6.2640    2.0490    1.7900 h1        1 MOL      0.078748
     60 N6         -6.2740    0.0600   -0.6160 n         1 MOL     -0.132358
     61 C19        -6.5640   -1.2690   -1.1850 c3        1 MOL     -0.082163
     62 C20        -6.5570   -2.4000   -0.1210 c         1 MOL      0.518886
     63 O10        -7.0100   -3.4880   -0.3950 o         1 MOL     -0.553031
     64 C21        -5.6420   -1.6270   -2.3990 c3        1 MOL     -0.271083
     65 C22        -4.2470   -2.1030   -1.9090 c         1 MOL      0.859302
     66 N7         -3.7060   -3.0310   -2.7090 n         1 MOL     -0.911977
     67 O11        -3.7190   -1.8870   -0.8500 o         1 MOL     -0.738477
     68 H28        -5.3640    0.3760   -0.9000 hn        1 MOL      0.163820
     69 H29        -7.5900   -1.2410   -1.5560 h1        1 MOL      0.123725
     70 H30        -5.5990   -0.8340   -3.1400 hc        1 MOL      0.113188
     71 H31        -6.0540   -2.4650   -2.9510 hc        1 MOL      0.113188
     72 H32        -4.2600   -3.4940   -3.4160 hn        1 MOL      0.366081
     73 H33        -2.9530   -3.6160   -2.3750 hn        1 MOL      0.366081
     74 N8         -6.0230   -2.1790    1.0930 n         1 MOL     -0.303362
     75 C23        -5.8990   -3.0690    2.3050 c3        1 MOL     -0.074500
     76 C24        -4.5450   -3.7130    2.4880 c         1 MOL      0.522249
     77 O12        -4.3610   -4.4200    3.4520 o         1 MOL     -0.571660
     78 H34        -5.8140   -1.2110    1.3130 hn        1 MOL      0.220769
     79 H35        -6.5870   -3.9070    2.2460 h1        1 MOL      0.101266
     80 H36        -6.2650   -2.6030    3.2170 h1        1 MOL      0.101266
     81 N9         -3.5850   -3.5760    1.5800 n         1 MOL     -0.402239
     82 C25        -2.2060   -4.1100    1.8270 c3        1 MOL      0.151350
     83 C26        -1.0040   -3.1560    1.5400 c         1 MOL      0.506663
     84 O13        -1.1270   -2.3080    0.6350 o         1 MOL     -0.521174
     85 C27        -2.1500   -5.3640    1.0520 c3        1 MOL     -0.135662
     86 C28        -1.9170   -5.4100   -0.4490 ca        1 MOL     -0.079766
     87 C29        -0.7750   -4.8510   -1.1790 ca        1 MOL      0.013561
     88 C30        -2.8880   -5.9970   -1.2380 ca        1 MOL      0.013561
     89 C31        -0.7690   -4.8140   -2.5330 ca        1 MOL     -0.397088
     90 C32        -2.7260   -6.1940   -2.6640 ca        1 MOL     -0.397088
     91 C33        -1.6670   -5.5280   -3.2970 ca        1 MOL      0.472268
     92 O14        -1.4470   -5.6480   -4.6330 oh        1 MOL     -0.559036
     93 H37        -3.7530   -3.0130    0.7600 hn        1 MOL      0.331561
     94 H38        -2.0610   -4.3730    2.8720 h1        1 MOL      0.049204
     95 H39        -3.0540   -5.9630    1.2300 hc        1 MOL      0.066244
     96 H40        -1.3490   -5.9940    1.4500 hc        1 MOL      0.066244
     97 H41         0.0100   -4.3450   -0.6350 ha        1 MOL      0.102241
     98 H42        -3.7760   -6.4440   -0.8100 ha        1 MOL      0.102241
     99 H43         0.0610   -4.3700   -3.0730 ha        1 MOL      0.156523
    100 H44        -3.3580   -6.7880   -3.3050 ha        1 MOL      0.156523
    101 H45        -2.0430   -6.2210   -5.1260 ho        1 MOL      0.396531
    102 N10         0.1300   -3.4690    2.1790 n         1 MOL     -0.430973
    103 C34         1.4410   -2.8190    2.0840 c3        1 MOL      0.001516
    104 C35         2.4840   -3.8240    1.5080 c         1 MOL      0.521705
    105 O15         2.4360   -5.0280    1.7110 o         1 MOL     -0.552348
    106 C36         1.9150   -2.3580    3.5050 c3        1 MOL      0.214626
    107 C37         1.0660   -1.2010    4.0070 c3        1 MOL     -0.156793
    108 C38         3.4270   -2.0870    3.7820 c3        1 MOL     -0.277328
    109 C39         1.0890    0.0520    3.0550 c3        1 MOL      0.093194
    110 H46        -0.0100   -4.2150    2.8520 hn        1 MOL      0.290885
    111 H47         1.3210   -1.9640    1.4200 h1        1 MOL      0.044191
    112 H48         1.5810   -3.2160    4.0920 hc        1 MOL     -0.031214
    113 H49         1.5170   -0.9710    4.9740 hc        1 MOL      0.035888
    114 H50         0.0420   -1.5100    4.2030 hc        1 MOL      0.035888
    115 H51         3.9730   -3.0180    3.6720 hc        1 MOL      0.061179
    116 H52         3.8500   -1.3700    3.0700 hc        1 MOL      0.061179
    117 H53         3.5710   -1.7200    4.8080 hc        1 MOL      0.061179
    118 H54         0.6300    0.8800    3.6040 hc        1 MOL      0.009551
    119 H55         2.1090    0.2430    2.7220 hc        1 MOL      0.009551
    120 H56         0.4120   -0.3290    2.2910 hc        1 MOL      0.009551
    121 N11         3.3190   -3.2250    0.7100 n         1 MOL     -0.204059
    122 C40         4.5790   -3.8430    0.1730 c3        1 MOL     -0.299013
    123 C41         5.6660   -2.7880    0.1180 c         1 MOL      0.612662
    124 O16         5.3560   -1.6130    0.2470 o         1 MOL     -0.433152
    125 C42         4.3020   -4.5340   -1.1950 c3        1 MOL      0.177343
    126 O17         4.0160   -3.6160   -2.1760 oh        1 MOL     -0.587215
    127 H57         3.1610   -2.2310    0.5870 hn        1 MOL      0.193992
    128 H58         4.9790   -4.6470    0.7890 h1        1 MOL      0.130253
    129 H59         3.5010   -5.2660   -1.1450 h1        1 MOL      0.057486
    130 H60         5.0990   -5.1720   -1.5690 h1        1 MOL      0.057486
    131 H61         3.1330   -3.2790   -2.0250 ho        1 MOL      0.417129
    132 N12         6.9080   -3.1890   -0.1540 n         1 MOL     -0.476864
    133 C43         8.0850   -2.4470    0.2680 c3        1 MOL      0.134419
    134 C44         8.2420   -0.9890   -0.3480 c         1 MOL      0.345520
    135 O18         8.7470   -0.0460    0.3370 o         1 MOL     -0.496796
    136 C45         9.3150   -3.2380   -0.2860 c3        1 MOL     -0.259671
    137 H62         6.9640   -4.1980   -0.0980 hn        1 MOL      0.288192
    138 H63         8.2020   -2.4190    1.3430 h1        1 MOL      0.077852
    139 H64         9.4470   -4.3090   -0.1180 hc        1 MOL      0.084476
    140 H65         9.4370   -2.9760   -1.3320 hc        1 MOL      0.084476
    141 H66        10.2140   -2.7910    0.1300 hc        1 MOL      0.084476
    142 N13         7.7690   -0.7780   -1.5840 n         1 MOL     -0.205697
    143 C46         7.8270    0.5150   -2.3120 c3        1 MOL      0.078671
    144 C47         6.8010    1.5060   -1.7860 c         1 MOL      0.402922
    145 O19         6.9290    2.7290   -1.9210 o         1 MOL     -0.552156
    146 C48         7.6470    0.1270   -3.7500 c3        1 MOL     -0.295593
    147 H67         7.4850   -1.5960   -2.0950 hn        1 MOL      0.212734
    148 H68         8.8080    0.9550   -2.2100 h1        1 MOL      0.098513
    149 H69         6.6760   -0.3290   -3.9380 hc        1 MOL      0.085850
    150 H70         7.6640    1.0940   -4.2500 hc        1 MOL      0.085850
    151 H71         8.4960   -0.4240   -4.1520 hc        1 MOL      0.085850
    152 N14         5.8320    0.9740   -1.0990 n         1 MOL     -0.208428
    153 C49         4.7430    1.8120   -0.3840 c3        1 MOL     -0.010897
    154 C50         5.0850    2.1010    1.0600 c         1 MOL      0.516905
    155 O20         4.8930    3.2240    1.4490 o         1 MOL     -0.518702
    156 C51         3.4620    1.1100   -0.4700 c3        1 MOL     -0.134052
    157 C52         2.2020    1.7490    0.0960 c3        1 MOL     -0.015394
    158 C53         0.9360    0.9430   -0.2230 c         1 MOL      0.663095
    159 O21        -0.0530    1.5900   -0.0940 o         1 MOL     -0.757405
    160 O22         0.8160   -0.2640   -0.5460 o         1 MOL     -0.757405
    161 H72         5.7660   -0.0320   -1.1190 hn        1 MOL      0.152327
    162 H73         4.7150    2.7710   -0.9160 h1        1 MOL      0.083617
    163 H74         3.5100    0.1000   -0.0670 hc        1 MOL      0.024098
    164 H75         3.3070    0.9740   -1.5420 hc        1 MOL      0.024098
    165 H76         2.1490    2.7050   -0.4110 hc        1 MOL      0.040948
    166 H77         2.2370    2.0670    1.1440 hc        1 MOL      0.040948
    167 N15         5.6290    1.0580    1.7770 n         1 MOL     -0.206993
    168 C54         6.1730    1.2770    3.2040 c3        1 MOL     -0.294203
    169 H78         5.3440    1.4900    3.8790 h1        1 MOL      0.128886
    170 H79         6.6910    0.3780    3.5380 h1        1 MOL      0.128886
    171 H80         6.8660    2.1180    3.2050 h1        1 MOL      0.128886
    172 H81         5.8970    0.2460    1.2440 hn        1 MOL      0.171289
    173 Ca1        -1.6990   -0.1890   -0.8230 Ca        1 MOL      1.779189
    174 O23        -1.2090   -1.6690   -2.9810 oh        1 MOL     -0.797130
    175 H82        -1.9270   -1.9530   -3.5560 ho        1 MOL      0.403051
    176 H83        -0.4980   -1.4550   -3.5870 ho        1 MOL      0.403051
@<TRIPOS>BOND
     1    1    2 1   
     2    1    4 1   
     3    1    5 1   
     4    1    6 1   
     5    2    3 2   
     6    2    7 1   
     7    7    8 1   
     8    7   15 1   
     9    8    9 1   
    10    8   11 1   
    11    8   16 1   
    12    9   10 2   
    13    9   19 1   
    14   11   12 1   
    15   11   17 1   
    16   11   18 1   
    17   12   13 1   
    18   12   14 1   
    19   19   20 1   
    20   19   28 1   
    21   20   21 1   
    22   20   23 1   
    23   20   29 1   
    24   21   22 2   
    25   21   41 1   
    26   23   24 1   
    27   23   30 1   
    28   23   31 1   
    29   24   25 1   
    30   24   32 1   
    31   24   33 1   
    32   25   26 1   
    33   25   34 1   
    34   25   35 1   
    35   26   27 1   
    36   26   36 1   
    37   26   37 1   
    38   27   38 1   
    39   27   39 1   
    40   27   40 1   
    41   41   42 1   
    42   41   49 1   
    43   42   43 1   
    44   42   45 1   
    45   42   50 1   
    46   43   44 2   
    47   43   53 1   
    48   45   46 1   
    49   45   51 1   
    50   45   52 1   
    51   46   47 1   
    52   46   48 1   
    53   53   54 1   
    54   53   57 1   
    55   54   55 1   
    56   54   58 1   
    57   54   59 1   
    58   55   56 2   
    59   55   60 1   
    60   60   61 1   
    61   60   68 1   
    62   61   62 1   
    63   61   64 1   
    64   61   69 1   
    65   62   63 2   
    66   62   74 1   
    67   64   65 1   
    68   64   70 1   
    69   64   71 1   
    70   65   66 1   
    71   65   67 2   
    72   66   72 1   
    73   66   73 1   
    74   74   75 1   
    75   74   78 1   
    76   75   76 1   
    77   75   79 1   
    78   75   80 1   
    79   76   77 2   
    80   76   81 1   
    81   81   82 1   
    82   81   93 1   
    83   82   83 1   
    84   82   85 1   
    85   82   94 1   
    86   83   84 2   
    87   83  102 1   
    88   85   86 1   
    89   85   95 1   
    90   85   96 1   
    91   86   87 ar  
    92   86   88 ar  
    93   87   89 ar  
    94   87   97 1   
    95   88   90 ar  
    96   88   98 1   
    97   89   91 ar  
    98   89   99 1   
    99   90   91 ar  
   100   90  100 1   
   101   91   92 1   
   102   92  101 1   
   103  102  103 1   
   104  102  110 1   
   105  103  104 1   
   106  103  106 1   
   107  103  111 1   
   108  104  105 2   
   109  104  121 1   
   110  106  107 1   
   111  106  108 1   
   112  106  112 1   
   113  107  109 1   
   114  107  113 1   
   115  107  114 1   
   116  108  115 1   
   117  108  116 1   
   118  108  117 1   
   119  109  118 1   
   120  109  119 1   
   121  109  120 1   
   122  121  122 1   
   123  121  127 1   
   124  122  123 1   
   125  122  125 1   
   126  122  128 1   
   127  123  124 2   
   128  123  132 1   
   129  125  126 1   
   130  125  129 1   
   131  125  130 1   
   132  126  131 1   
   133  132  133 1   
   134  132  137 1   
   135  133  134 1   
   136  133  136 1   
   137  133  138 1   
   138  134  135 2   
   139  134  142 1   
   140  136  139 1   
   141  136  140 1   
   142  136  141 1   
   143  142  143 1   
   144  142  147 1   
   145  143  144 1   
   146  143  146 1   
   147  143  148 1   
   148  144  145 2   
   149  144  152 1   
   150  146  149 1   
   151  146  150 1   
   152  146  151 1   
   153  152  153 1   
   154  152  161 1   
   155  153  154 1   
   156  153  156 1   
   157  153  162 1   
   158  154  155 2   
   159  154  167 1   
   160  156  157 1   
   161  156  163 1   
   162  156  164 1   
   163  157  158 1   
   164  157  165 1   
   165  157  166 1   
   166  158  159 1   
   167  158  160 1   
   168  167  168 1   
   169  167  172 1   
   170  168  169 1   
   171  168  170 1   
   172  168  171 1   
   173  174  175 1   
   174  174  176 1   
@<TRIPOS>SUBSTRUCTURE
     1 MOL         1 TEMP              0 ****  ****    0 ROOT
