@<TRIPOS>MOLECULE
MOL
  172   171     1     0     0
SMALL
resp


@<TRIPOS>ATOM
      1 C1          0.7030    4.1130    5.3240 c3        1 MOL     -0.363103
      2 C2          0.0080    3.9820    3.9800 c         1 MOL      0.744777
      3 O1          0.6720    3.8670    2.9760 o         1 MOL     -0.587280
      4 H1          0.0850    3.6580    6.0980 hc        1 MOL      0.087879
      5 H2          1.6680    3.6070    5.2860 hc        1 MOL      0.087879
      6 H3          0.8550    5.1670    5.5540 hc        1 MOL      0.087879
      7 N1         -1.2880    3.8360    3.8140 n         1 MOL     -0.615050
      8 C3         -1.9450    3.5230    2.5540 c3        1 MOL      0.089932
      9 C4         -2.0870    4.6900    1.5610 c         1 MOL      0.673843
     10 O2         -2.4360    5.8100    1.9250 o         1 MOL     -0.631203
     11 C5         -3.4080    3.0260    2.8610 c3        1 MOL     -0.263228
     12 C6         -4.0960    2.4490    1.6000 c         1 MOL      0.679109
     13 O3         -3.4530    2.0500    0.6340 o         1 MOL     -0.652232
     14 O4         -5.3110    2.2780    1.6830 o         1 MOL     -0.652232
     15 H4         -1.9020    3.9410    4.6180 hn        1 MOL      0.301623
     16 H5         -1.3930    2.7100    2.0850 h1        1 MOL      0.090967
     17 H6         -3.9940    3.8800    3.2000 hc        1 MOL      0.064249
     18 H7         -3.3230    2.3250    3.7000 hc        1 MOL      0.064249
     19 N2         -1.8610    4.4130    0.2940 n         1 MOL     -0.663816
     20 C7         -2.0980    5.3350   -0.8390 c3        1 MOL      0.528224
     21 C8         -3.2590    4.8850   -1.7850 c         1 MOL      0.146294
     22 O5         -3.5780    5.6400   -2.6940 o         1 MOL     -0.545421
     23 C9         -0.6950    5.5340   -1.5560 c3        1 MOL     -0.332635
     24 H8         -1.5970    3.4520    0.1520 hn        1 MOL      0.307751
     25 H9         -2.2510    6.3170   -0.4140 h1        1 MOL     -0.002212
     26 H10         0.1800    5.4260   -0.9160 hc        1 MOL      0.074590
     27 H11        -0.4850    4.7310   -2.2610 hc        1 MOL      0.074590
     28 H12        -0.8110    6.5290   -1.9810 hc        1 MOL      0.074590
     29 N3         -3.8650    3.7500   -1.6230 n         1 MOL      0.007738
     30 C10        -4.8380    3.2900   -2.6460 c3        1 MOL     -0.057511
     31 C11        -6.1930    2.5930   -2.2090 c         1 MOL      0.381809
     32 O6         -7.0760    2.3200   -3.0350 o         1 MOL     -0.538210
     33 C12        -3.9720    2.3570   -3.5510 c3        1 MOL     -0.111896
     34 C13        -3.2480    1.3440   -2.7650 c         1 MOL      0.682576
     35 O7         -3.9130    0.5990   -2.0180 o         1 MOL     -0.695488
     36 O8         -2.0030    1.3560   -2.7540 o         1 MOL     -0.695488
     37 H13        -3.6680    3.1910   -0.8100 hn        1 MOL      0.117315
     38 H14        -5.0850    4.1170   -3.3110 h1        1 MOL      0.112570
     39 H15        -3.2130    2.8770   -4.1240 hc        1 MOL      0.033738
     40 H16        -4.6830    1.8480   -4.2000 hc        1 MOL      0.033738
     41 N4         -6.4020    2.2760   -0.9630 n         1 MOL     -0.196497
     42 C14        -7.5850    1.4700   -0.4430 c3        1 MOL     -0.221348
     43 C15        -7.5290    0.0060   -0.8520 c         1 MOL      0.545735
     44 O9         -8.5620   -0.6320   -0.8070 o         1 MOL     -0.629085
     45 H17        -5.6470    2.4060   -0.3010 hn        1 MOL      0.152870
     46 H18        -8.5560    1.8530   -0.7620 h1        1 MOL      0.131005
     47 H19        -7.5360    1.4710    0.6450 h1        1 MOL      0.131005
     48 N5         -6.4510   -0.5830   -1.3780 n         1 MOL     -0.113281
     49 C16        -6.3720   -1.9930   -1.9340 c3        1 MOL      0.027094
     50 C17        -6.3460   -3.0880   -0.8700 c         1 MOL      0.527281
     51 O10        -6.6410   -4.2380   -1.1640 o         1 MOL     -0.538684
     52 C18        -5.2100   -2.0080   -2.9410 c3        1 MOL     -0.237569
     53 C19        -3.8000   -2.0110   -2.3920 c         1 MOL      0.656222
     54 N6         -2.8460   -2.1740   -3.2920 n         1 MOL     -0.564924
     55 O11        -3.4730   -2.0430   -1.1880 o         1 MOL     -0.715154
     56 H20        -5.6600    0.0220   -1.5630 hn        1 MOL      0.072384
     57 H21        -7.3010   -2.1450   -2.4710 h1        1 MOL      0.083267
     58 H22        -5.3040   -1.1880   -3.6440 hc        1 MOL      0.077171
     59 H23        -5.3870   -2.9510   -3.4670 hc        1 MOL      0.077171
     60 H24        -3.0810   -2.3390   -4.2540 hn        1 MOL      0.297081
     61 H25        -1.8900   -2.3320   -2.9800 hn        1 MOL      0.297081
     62 N7         -6.2760   -2.6390    0.3910 n         1 MOL     -0.333669
     63 C20        -6.4150   -3.4830    1.5990 c3        1 MOL      0.017358
     64 C21        -5.1260   -4.2670    1.9030 c         1 MOL      0.402165
     65 O12        -5.2140   -5.3330    2.5050 o         1 MOL     -0.549518
     66 H26        -6.0320   -1.6750    0.5210 hn        1 MOL      0.223650
     67 H27        -7.2540   -4.1700    1.5080 h1        1 MOL      0.062515
     68 H28        -6.7180   -2.8320    2.4260 h1        1 MOL      0.062515
     69 N8         -3.9930   -3.7670    1.4270 n         1 MOL     -0.125904
     70 C22        -2.7370   -4.5000    1.4620 c3        1 MOL     -0.166025
     71 C23        -1.6020   -3.4780    1.6200 c         1 MOL      0.414059
     72 O13        -1.7360   -2.4410    1.0020 o         1 MOL     -0.445534
     73 C24        -2.3590   -5.3170    0.1690 c3        1 MOL      0.555468
     74 C25        -3.0700   -6.6100    0.1870 c3        1 MOL     -0.747292
     75 O14        -2.6670   -4.7110   -0.9930 oh        1 MOL     -0.567242
     76 H29        -3.9860   -2.8490    1.0250 hn        1 MOL      0.135879
     77 H30        -2.6840   -5.0910    2.3770 h1        1 MOL      0.097610
     78 H31        -1.2840   -5.4610    0.0710 h1        1 MOL     -0.020944
     79 H32        -2.4530   -3.7820   -0.8830 ho        1 MOL      0.361264
     80 H33        -4.1450   -6.4550    0.1620 hc        1 MOL      0.190163
     81 H34        -2.8120   -7.0500   -0.7770 hc        1 MOL      0.190163
     82 H35        -2.7430   -7.1380    1.0840 hc        1 MOL      0.190163
     83 N9         -0.4840   -3.7620    2.2820 n         1 MOL     -0.498291
     84 C26         0.6930   -2.9620    2.1770 c3        1 MOL      0.092972
     85 C27         1.3570   -3.2430    0.8130 c         1 MOL      0.401753
     86 O15         1.5260   -4.3690    0.3560 o         1 MOL     -0.557738
     87 C28         1.6770   -2.9370    3.4320 c3        1 MOL      0.052947
     88 C29         0.9580   -2.0890    4.4790 c3        1 MOL      0.193393
     89 C30         3.1110   -2.4170    3.1610 c3        1 MOL     -0.161950
     90 C31         1.5520   -2.1750    5.8790 c3        1 MOL     -0.342986
     91 H36        -0.3940   -4.7330    2.5290 hn        1 MOL      0.282628
     92 H37         0.3830   -1.9320    1.9760 h1        1 MOL     -0.022343
     93 H38         1.8150   -3.9040    3.9060 hc        1 MOL      0.004007
     94 H39        -0.0940   -2.3250    4.6320 hc        1 MOL     -0.014043
     95 H40         1.1240   -1.0650    4.1630 hc        1 MOL     -0.014043
     96 H41         3.0080   -1.4170    2.7160 hc        1 MOL      0.031906
     97 H42         3.8650   -2.3300    3.9430 hc        1 MOL      0.031906
     98 H43         3.6180   -3.0680    2.4600 hc        1 MOL      0.031906
     99 H44         1.7680   -3.2130    6.1490 hc        1 MOL      0.071657
    100 H45         2.4140   -1.5190    5.8120 hc        1 MOL      0.071657
    101 H46         0.8100   -1.9000    6.6260 hc        1 MOL      0.071657
    102 N10         1.7890   -2.1410    0.1250 n         1 MOL     -0.054155
    103 C32         2.6350   -2.1330   -1.0090 c3        1 MOL     -0.100392
    104 C33         4.0530   -1.6450   -0.6960 c         1 MOL      0.457654
    105 O16         4.2470   -0.9350    0.2470 o         1 MOL     -0.392114
    106 C34         1.9430   -1.2070   -1.9820 c3        1 MOL     -0.233686
    107 C35         0.4610   -1.7470   -2.2670 c         1 MOL      0.717398
    108 O17        -0.5480   -1.2880   -1.6600 o         1 MOL     -0.672978
    109 O18         0.2530   -2.4980   -3.2430 o         1 MOL     -0.672978
    110 H47         1.5840   -1.2940    0.6310 hn        1 MOL      0.220869
    111 H48         2.6650   -3.1230   -1.4690 h1        1 MOL      0.088783
    112 H49         2.4840   -1.1550   -2.9340 hc        1 MOL      0.059894
    113 H50         1.8020   -0.1930   -1.6230 hc        1 MOL      0.059894
    114 N11         5.0420   -1.9920   -1.5480 n         1 MOL     -0.574957
    115 C36         6.4000   -1.5040   -1.3290 c3        1 MOL      0.279662
    116 C37         6.5780    0.0330   -1.0950 c         1 MOL      0.347853
    117 O19         7.3660    0.3790   -0.2390 o         1 MOL     -0.475070
    118 C38         7.2240   -1.9790   -2.5520 c3        1 MOL     -0.334583
    119 C39         8.7080   -1.7970   -2.2810 ca        1 MOL      0.148264
    120 C40         9.3160   -2.4040   -1.1770 ca        1 MOL     -0.198267
    121 C41         9.4520   -0.9590   -3.1230 ca        1 MOL     -0.198267
    122 C42        10.7020   -2.2030   -0.9060 ca        1 MOL     -0.103339
    123 C43        10.8550   -0.9930   -2.9730 ca        1 MOL     -0.103339
    124 C44        11.4540   -1.5950   -1.8490 ca        1 MOL     -0.084368
    125 H51         4.8480   -2.6840   -2.2640 hn        1 MOL      0.324857
    126 H52         6.6790   -2.0830   -0.4540 h1        1 MOL      0.079631
    127 H53         7.0240   -1.4720   -3.4960 hc        1 MOL      0.110107
    128 H54         7.1000   -3.0380   -2.7710 hc        1 MOL      0.110107
    129 H55         8.6850   -2.8750   -0.4290 ha        1 MOL      0.126137
    130 H56         8.9850   -0.4020   -3.9260 ha        1 MOL      0.126137
    131 H57        11.0910   -2.6000    0.0260 ha        1 MOL      0.107245
    132 H58        11.4380   -0.5200   -3.7480 ha        1 MOL      0.107245
    133 H59        12.5400   -1.5460   -1.8540 ha        1 MOL      0.079992
    134 N12         5.9460    1.0060   -1.7800 n         1 MOL     -0.055428
    135 C45         6.0080    2.4370   -1.4750 c3        1 MOL      0.033337
    136 C46         5.5320    2.7810   -0.0520 c         1 MOL      0.283084
    137 O20         6.0190    3.7400    0.5240 o         1 MOL     -0.511183
    138 C47         5.1390    3.1960   -2.5780 c3        1 MOL     -0.032688
    139 C48         5.1170    2.2330   -3.6720 c3        1 MOL     -0.012663
    140 C49         5.2160    0.8310   -3.0290 c3        1 MOL     -0.030938
    141 H60         7.0380    2.7700   -1.5490 h1        1 MOL      0.040706
    142 H61         4.1510    3.2790   -2.1390 hc        1 MOL      0.034247
    143 H62         5.5510    4.1710   -2.8450 hc        1 MOL      0.034247
    144 H63         4.1660    2.2350   -4.2090 hc        1 MOL      0.023500
    145 H64         5.8850    2.3680   -4.4420 hc        1 MOL      0.023500
    146 H65         4.2240    0.4330   -2.8420 h1        1 MOL      0.027371
    147 H66         5.7540    0.1730   -3.7050 h1        1 MOL      0.027371
    148 N13         4.6150    2.0210    0.4660 n         1 MOL      0.084513
    149 C50         4.0570    2.3030    1.7280 c3        1 MOL     -0.243262
    150 C51         4.8910    1.6030    2.7780 c         1 MOL      0.503175
    151 O21         5.0270    2.0850    3.9200 o         1 MOL     -0.573360
    152 C52         2.7000    1.5670    1.8110 c3        1 MOL      0.030971
    153 C53         1.8040    1.9970    0.5570 c3        1 MOL      0.008678
    154 C54         0.4720    1.3670    0.4860 c         1 MOL      0.498314
    155 O22        -0.6060    1.8950    0.0160 o         1 MOL     -0.647696
    156 O23         0.3050    0.1940    0.7700 o         1 MOL     -0.647696
    157 H67         4.2540    1.2300   -0.0290 hn        1 MOL      0.150972
    158 H68         3.9220    3.3760    1.9160 h1        1 MOL      0.147365
    159 H69         2.0950    1.8820    2.6630 hc        1 MOL      0.011665
    160 H70         2.8740    0.4940    1.7580 hc        1 MOL      0.011665
    161 H71         2.4120    1.6510   -0.2760 hc        1 MOL      0.027879
    162 H72         1.8420    3.0900    0.4830 hc        1 MOL      0.027879
    163 N14         5.5270    0.4700    2.4140 n         1 MOL     -0.052325
    164 C55         6.5540   -0.2040    3.2250 c3        1 MOL     -0.220097
    165 H73         7.5080   -0.1750    2.6990 h1        1 MOL      0.085039
    166 H74         6.6530    0.3060    4.1830 h1        1 MOL      0.085039
    167 H75         6.2640   -1.2410    3.3930 h1        1 MOL      0.085039
    168 H76         5.4680    0.2800    1.4180 hn        1 MOL      0.010859
    169 Ca1        -2.0990   -0.0350   -0.1420 Ca        1 MOL      1.729087
    170 O24        -1.6010    0.1660    2.6180 oh        1 MOL     -0.779694
    171 H77        -1.4860    0.2190    3.5650 ho        1 MOL      0.377362
    172 H78        -0.7440    0.3910    2.2560 ho        1 MOL      0.377362
@<TRIPOS>BOND
     1    1    2 1   
     2    1    4 1   
     3    1    5 1   
     4    1    6 1   
     5    2    3 2   
     6    2    7 1   
     7    7    8 1   
     8    7   15 1   
     9    8    9 1   
    10    8   11 1   
    11    8   16 1   
    12    9   10 2   
    13    9   19 1   
    14   11   12 1   
    15   11   17 1   
    16   11   18 1   
    17   12   13 1   
    18   12   14 1   
    19   19   20 1   
    20   19   24 1   
    21   20   21 1   
    22   20   23 1   
    23   20   25 1   
    24   21   22 2   
    25   21   29 1   
    26   23   26 1   
    27   23   27 1   
    28   23   28 1   
    29   29   30 1   
    30   29   37 1   
    31   30   31 1   
    32   30   33 1   
    33   30   38 1   
    34   31   32 2   
    35   31   41 1   
    36   33   34 1   
    37   33   39 1   
    38   33   40 1   
    39   34   35 1   
    40   34   36 1   
    41   41   42 1   
    42   41   45 1   
    43   42   43 1   
    44   42   46 1   
    45   42   47 1   
    46   43   44 2   
    47   43   48 1   
    48   48   49 1   
    49   48   56 1   
    50   49   50 1   
    51   49   52 1   
    52   49   57 1   
    53   50   51 2   
    54   50   62 1   
    55   52   53 1   
    56   52   58 1   
    57   52   59 1   
    58   53   54 1   
    59   53   55 2   
    60   54   60 1   
    61   54   61 1   
    62   62   63 1   
    63   62   66 1   
    64   63   64 1   
    65   63   67 1   
    66   63   68 1   
    67   64   65 2   
    68   64   69 1   
    69   69   70 1   
    70   69   76 1   
    71   70   71 1   
    72   70   73 1   
    73   70   77 1   
    74   71   72 2   
    75   71   83 1   
    76   73   74 1   
    77   73   75 1   
    78   73   78 1   
    79   74   80 1   
    80   74   81 1   
    81   74   82 1   
    82   75   79 1   
    83   83   84 1   
    84   83   91 1   
    85   84   85 1   
    86   84   87 1   
    87   84   92 1   
    88   85   86 2   
    89   85  102 1   
    90   87   88 1   
    91   87   89 1   
    92   87   93 1   
    93   88   90 1   
    94   88   94 1   
    95   88   95 1   
    96   89   96 1   
    97   89   97 1   
    98   89   98 1   
    99   90   99 1   
   100   90  100 1   
   101   90  101 1   
   102  102  103 1   
   103  102  110 1   
   104  103  104 1   
   105  103  106 1   
   106  103  111 1   
   107  104  105 2   
   108  104  114 1   
   109  106  107 1   
   110  106  112 1   
   111  106  113 1   
   112  107  108 1   
   113  107  109 1   
   114  114  115 1   
   115  114  125 1   
   116  115  116 1   
   117  115  118 1   
   118  115  126 1   
   119  116  117 2   
   120  116  134 1   
   121  118  119 1   
   122  118  127 1   
   123  118  128 1   
   124  119  120 ar  
   125  119  121 ar  
   126  120  122 ar  
   127  120  129 1   
   128  121  123 ar  
   129  121  130 1   
   130  122  124 ar  
   131  122  131 1   
   132  123  124 ar  
   133  123  132 1   
   134  124  133 1   
   135  134  135 1   
   136  134  140 1   
   137  135  136 1   
   138  135  138 1   
   139  135  141 1   
   140  136  137 2   
   141  136  148 1   
   142  138  139 1   
   143  138  142 1   
   144  138  143 1   
   145  139  140 1   
   146  139  144 1   
   147  139  145 1   
   148  140  146 1   
   149  140  147 1   
   150  148  149 1   
   151  148  157 1   
   152  149  150 1   
   153  149  152 1   
   154  149  158 1   
   155  150  151 2   
   156  150  163 1   
   157  152  153 1   
   158  152  159 1   
   159  152  160 1   
   160  153  154 1   
   161  153  161 1   
   162  153  162 1   
   163  154  155 1   
   164  154  156 1   
   165  163  164 1   
   166  163  168 1   
   167  164  165 1   
   168  164  166 1   
   169  164  167 1   
   170  170  171 1   
   171  170  172 1   
@<TRIPOS>SUBSTRUCTURE
     1 MOL         1 TEMP              0 ****  ****    0 ROOT
