@<TRIPOS>MOLECULE
MOL
  189   185     1     0     0
SMALL
resp


@<TRIPOS>ATOM
      1 C1          0.6160    1.9860    5.6200 c3        1 MOL     -0.407019
      2 C2         -0.0010    2.1630    4.2140 c         1 MOL      0.758767
      3 O1          0.5370    2.8040    3.3560 o         1 MOL     -0.654863
      4 H1          0.5340    0.9430    5.9240 hc        1 MOL      0.110313
      5 H2          1.6660    2.2760    5.5960 hc        1 MOL      0.110313
      6 H3          0.0820    2.6150    6.3330 hc        1 MOL      0.110313
      7 N1         -1.1530    1.5740    3.9420 n         1 MOL     -0.658470
      8 C3         -1.9060    1.5140    2.6890 c3        1 MOL      0.259347
      9 C4         -2.5170    2.8320    2.3200 c         1 MOL      0.487321
     10 O2         -3.3200    3.4060    3.0210 o         1 MOL     -0.591927
     11 C5         -2.9910    0.4110    2.8060 c3        1 MOL     -0.376188
     12 C6         -3.7150    0.2740    1.4460 c         1 MOL      0.697490
     13 O3         -4.8060   -0.2720    1.4590 o         1 MOL     -0.638486
     14 O4         -3.2050    0.7310    0.4220 o         1 MOL     -0.638486
     15 H4         -1.5280    0.9310    4.6160 hn        1 MOL      0.305031
     16 H5         -1.2040    1.1790    1.9270 h1        1 MOL      0.034680
     17 H6         -3.6140    0.6820    3.6510 hc        1 MOL      0.102613
     18 H7         -2.4490   -0.4870    3.1200 hc        1 MOL      0.102613
     19 N2         -2.1920    3.2770    1.0780 n         1 MOL     -0.079013
     20 C7         -2.5310    4.6110    0.5390 c3        1 MOL     -0.035043
     21 C8         -3.7470    4.5030   -0.3670 c         1 MOL      0.290528
     22 O5         -4.2980    5.5740   -0.6700 o         1 MOL     -0.555543
     23 C9         -1.3360    5.2310   -0.1310 c3        1 MOL      0.172683
     24 C10        -0.0900    5.5280    0.7390 c3        1 MOL     -0.181116
     25 C11        -0.3400    6.2450    2.0730 c3        1 MOL     -0.013676
     26 C12        -1.1210    7.5780    1.9520 c3        1 MOL      0.134368
     27 N3         -1.4070    8.0910    3.3240 n4        1 MOL     -0.470780
     28 H8         -1.4600    2.7250    0.6550 hn        1 MOL      0.194555
     29 H9         -2.8980    5.2970    1.2960 h1        1 MOL      0.068357
     30 H10        -1.6640    6.1650   -0.5850 hc        1 MOL     -0.004125
     31 H11        -1.0000    4.6960   -1.0260 hc        1 MOL     -0.004125
     32 H12         0.5860    6.1670    0.1800 hc        1 MOL      0.045710
     33 H13         0.3450    4.5740    1.0410 hc        1 MOL      0.045710
     34 H14         0.6160    6.4380    2.5690 hc        1 MOL      0.042599
     35 H15        -0.9150    5.5220    2.6500 hc        1 MOL      0.042599
     36 H16        -2.0340    7.3190    1.4110 hx        1 MOL      0.040837
     37 H17        -0.5290    8.3520    1.4580 hx        1 MOL      0.040837
     38 H18        -0.6090    8.5900    3.6680 hn        1 MOL      0.348093
     39 H19        -2.1230    8.8100    3.2810 hn        1 MOL      0.348093
     40 H20        -1.7560    7.3900    3.9680 hn        1 MOL      0.348093
     41 N4         -4.0400    3.3410   -0.8290 n         1 MOL      0.017331
     42 C13        -4.9630    3.1420   -1.9830 c3        1 MOL     -0.075051
     43 C14        -6.3050    2.5760   -1.5070 c         1 MOL      0.404558
     44 O6         -7.3590    2.8700   -2.1720 o         1 MOL     -0.533501
     45 C15        -4.3820    2.3000   -3.1510 c3        1 MOL      0.131511
     46 C16        -2.8820    2.4100   -3.2920 c         1 MOL      0.637445
     47 O7         -2.2300    1.4350   -2.8210 o         1 MOL     -0.721451
     48 O8         -2.3910    3.3670   -3.9550 o         1 MOL     -0.721451
     49 H21        -3.5880    2.5530   -0.3830 hn        1 MOL     -0.005379
     50 H22        -5.2210    4.1160   -2.3790 h1        1 MOL      0.092193
     51 H23        -4.8460    2.5510   -4.1040 hc        1 MOL     -0.023483
     52 H24        -4.6850    1.2720   -2.9680 hc        1 MOL     -0.023483
     53 N5         -6.3700    1.8100   -0.3970 n         1 MOL     -0.295553
     54 C17        -7.5880    1.1150    0.0620 c3        1 MOL     -0.200342
     55 C18        -7.7020   -0.2270   -0.5760 c         1 MOL      0.513438
     56 O9         -8.8020   -0.7780   -0.6570 o         1 MOL     -0.577939
     57 H25        -5.4970    1.5900    0.0490 hn        1 MOL      0.245014
     58 H26        -8.4550    1.6750   -0.3090 h1        1 MOL      0.128859
     59 H27        -7.6670    0.9760    1.1380 h1        1 MOL      0.128859
     60 N6         -6.5980   -0.7890   -1.1440 n         1 MOL     -0.185266
     61 C19        -6.6270   -2.0820   -1.7530 c3        1 MOL     -0.076352
     62 C20        -6.5800   -3.2380   -0.7280 c         1 MOL      0.410935
     63 O10        -6.6690   -4.4270   -1.0930 o         1 MOL     -0.527198
     64 C21        -5.5780   -2.1520   -2.8230 c3        1 MOL     -0.283020
     65 C22        -4.1720   -1.8470   -2.4260 c         1 MOL      0.843935
     66 O11        -3.9670   -1.6920   -1.2400 o         1 MOL     -0.809198
     67 O12        -3.2930   -1.5240   -3.2540 o         1 MOL     -0.809198
     68 H28        -5.6910   -0.3550   -1.0770 hn        1 MOL      0.224544
     69 H29        -7.6230   -2.1590   -2.2020 h1        1 MOL      0.119855
     70 H30        -5.8630   -1.3510   -3.5020 hc        1 MOL      0.083133
     71 H31        -5.5930   -3.1070   -3.3450 hc        1 MOL      0.083133
     72 N7         -6.2420   -2.9360    0.5530 n         1 MOL     -0.137032
     73 C23        -6.0850   -3.9610    1.5150 c3        1 MOL     -0.259268
     74 C24        -4.7630   -4.6870    1.3800 c         1 MOL      0.623483
     75 O13        -4.5910   -5.7010    2.0680 o         1 MOL     -0.581482
     76 H32        -6.1660   -1.9660    0.8360 hn        1 MOL      0.219769
     77 H33        -6.9390   -4.6260    1.3310 h1        1 MOL      0.113520
     78 H34        -6.0520   -3.6140    2.5450 h1        1 MOL      0.113520
     79 N8         -3.7190   -4.0960    0.7010 n         1 MOL     -0.415955
     80 C25        -2.3210   -4.6570    0.7910 c3        1 MOL     -0.061826
     81 C26        -1.3650   -3.5180    0.9910 c         1 MOL      0.813636
     82 O14        -1.6260   -2.3690    0.6760 o         1 MOL     -0.673584
     83 C27        -2.0570   -5.5290   -0.4640 c3        1 MOL      0.459490
     84 C28        -2.7480   -6.8650   -0.4840 c3        1 MOL     -0.383241
     85 O15        -2.2150   -4.8570   -1.7360 oh        1 MOL     -0.676699
     86 H35        -3.8680   -3.2240    0.2230 hn        1 MOL      0.308155
     87 H36        -2.1400   -5.3480    1.6130 h1        1 MOL      0.063729
     88 H37        -0.9840   -5.6870   -0.4160 h1        1 MOL     -0.045367
     89 H38        -2.5090   -5.5140   -2.3870 ho        1 MOL      0.418289
     90 H39        -2.4020   -7.4080    0.3900 hc        1 MOL      0.102654
     91 H40        -3.8300   -6.7150   -0.5250 hc        1 MOL      0.102654
     92 H41        -2.3200   -7.3260   -1.3700 hc        1 MOL      0.102654
     93 N9         -0.1860   -3.8830    1.5010 n         1 MOL     -0.658329
     94 C29         1.0090   -3.0560    1.6510 c3        1 MOL      0.014896
     95 C30         2.1130   -3.4870    0.7010 c         1 MOL      0.520529
     96 O16         2.3610   -4.6520    0.6240 o         1 MOL     -0.561501
     97 C31         1.5380   -2.9910    3.1220 c3        1 MOL      0.234736
     98 C32         0.3660   -2.7230    4.1430 c3        1 MOL      0.137542
     99 C33         2.5920   -1.8670    3.2970 c3        1 MOL     -0.406879
    100 C34         0.7410   -3.1080    5.5970 c3        1 MOL     -0.333615
    101 H42         0.0400   -4.8710    1.5830 hn        1 MOL      0.304486
    102 H43         0.7790   -2.0060    1.4430 h1        1 MOL      0.151292
    103 H44         1.9800   -3.9640    3.3240 hc        1 MOL     -0.017586
    104 H45        -0.5310   -3.2690    3.8260 hc        1 MOL     -0.022810
    105 H46        -0.0380   -1.7280    3.9320 hc        1 MOL     -0.022810
    106 H47         2.1890   -0.9070    2.9880 hc        1 MOL      0.064158
    107 H48         3.0000   -1.8700    4.3080 hc        1 MOL      0.064158
    108 H49         3.4860   -2.0990    2.7220 hc        1 MOL      0.064158
    109 H50         1.1600   -4.1110    5.5220 hc        1 MOL      0.082609
    110 H51         1.4310   -2.4020    6.0550 hc        1 MOL      0.082609
    111 H52        -0.1920   -3.1270    6.1520 hc        1 MOL      0.082609
    112 N10         2.7050   -2.5050    0.0330 n         1 MOL     -0.037659
    113 C35         3.8470   -2.8440   -0.8000 c3        1 MOL     -0.086990
    114 C36         5.1640   -2.3520   -0.0620 c         1 MOL      0.257201
    115 O17         5.1810   -1.5690    0.8560 o         1 MOL     -0.256738
    116 C37         3.7000   -2.0990   -2.0890 c3        1 MOL      0.349281
    117 C38         2.7950   -2.8730   -3.0670 c3        1 MOL     -0.460000
    118 O18         3.2180   -0.7750   -1.9400 oh        1 MOL     -0.702489
    119 H53         2.3350   -1.5650   -0.0130 hn        1 MOL     -0.026823
    120 H54         3.8110   -3.9250   -0.9930 h1        1 MOL      0.095191
    121 H55         4.6930   -1.9420   -2.5010 h1        1 MOL     -0.009984
    122 H56         2.2590   -0.8560   -1.9840 ho        1 MOL      0.534444
    123 H57         2.7210   -2.1360   -3.8600 hc        1 MOL      0.125099
    124 H58         3.3570   -3.7890   -3.2810 hc        1 MOL      0.125099
    125 H59         1.8840   -3.1740   -2.5570 hc        1 MOL      0.125099
    126 N11         6.3590   -2.8430   -0.5660 n         1 MOL     -0.314421
    127 C39         7.6900   -2.2110   -0.2390 c3        1 MOL     -0.210875
    128 C40         7.8090   -0.6990   -0.4940 c         1 MOL      0.581765
    129 O19         8.8130   -0.1040   -0.0560 o         1 MOL     -0.521975
    130 C41         8.8610   -2.9900   -0.7700 c3        1 MOL      0.369952
    131 C42         8.8830   -4.4680   -0.3330 c3        1 MOL     -0.401664
    132 O20         8.8220   -2.9330   -2.1540 oh        1 MOL     -0.637484
    133 H60         6.3270   -3.4250   -1.3900 hn        1 MOL      0.280903
    134 H61         7.7520   -2.1080    0.8450 h1        1 MOL      0.123131
    135 H62         9.8310   -2.5960   -0.4950 h1        1 MOL      0.024321
    136 H63         9.5610   -3.5010   -2.3920 ho        1 MOL      0.412113
    137 H64         8.0070   -4.9300   -0.7740 hc        1 MOL      0.106128
    138 H65         9.8090   -4.8960   -0.7030 hc        1 MOL      0.106128
    139 H66         8.8140   -4.4850    0.7500 hc        1 MOL      0.106128
    140 N12         6.9060   -0.1060   -1.2780 n         1 MOL     -0.381544
    141 C43         6.7950    1.4090   -1.3390 c3        1 MOL     -0.075554
    142 C44         6.1340    1.8860   -0.0720 c         1 MOL      0.338404
    143 O21         6.6510    2.7340    0.6440 o         1 MOL     -0.490768
    144 C45         6.1190    1.8950   -2.6200 c3        1 MOL     -0.054995
    145 C46         5.9780    3.4690   -2.7310 c3        1 MOL     -0.062409
    146 C47         4.9720    3.8940   -3.8560 c3        1 MOL     -0.062813
    147 C48         5.3460    3.6680   -5.3330 c3        1 MOL      0.008044
    148 N13         4.1910    3.9730   -6.2350 n4        1 MOL     -0.312330
    149 H67         6.1230   -0.5320   -1.7530 hn        1 MOL      0.275742
    150 H68         7.7730    1.8830   -1.3610 h1        1 MOL      0.120987
    151 H69         5.0620    1.6030   -2.5750 hc        1 MOL      0.043305
    152 H70         6.5280    1.4840   -3.5490 hc        1 MOL      0.043305
    153 H71         6.9320    3.9140   -2.9830 hc        1 MOL      0.069165
    154 H72         5.6370    3.8940   -1.7910 hc        1 MOL      0.069165
    155 H73         4.8270    4.9520   -3.6380 hc        1 MOL      0.044009
    156 H74         4.0260    3.3730   -3.7100 hc        1 MOL      0.044009
    157 H75         5.5340    2.5920   -5.3780 hx        1 MOL      0.091543
    158 H76         6.2420    4.2300   -5.6060 hx        1 MOL      0.091543
    159 H77         3.9680    4.9620   -6.1920 hn        1 MOL      0.322765
    160 H78         4.2860    3.8270   -7.2320 hn        1 MOL      0.322765
    161 H79         3.3830    3.4620   -5.9080 hn        1 MOL      0.322765
    162 N14         4.9580    1.3610    0.1840 n         1 MOL     -0.008646
    163 C49         4.1590    1.8420    1.2890 c3        1 MOL     -0.315201
    164 C50         4.7460    1.6380    2.7240 c         1 MOL      0.482197
    165 O22         4.4540    2.3260    3.6670 o         1 MOL     -0.541838
    166 C51         2.7710    1.1800    1.2610 c3        1 MOL      0.117005
    167 C52         1.9770    1.8290    0.1500 c3        1 MOL     -0.007293
    168 C53         0.7360    1.0330   -0.2240 c         1 MOL      0.761251
    169 O23         0.7580   -0.2140   -0.2750 o         1 MOL     -0.802931
    170 O24        -0.3720    1.5630   -0.3960 o         1 MOL     -0.802931
    171 H80         4.6420    0.6120   -0.4250 hn        1 MOL      0.147207
    172 H81         3.9930    2.9200    1.2790 h1        1 MOL      0.140327
    173 H82         2.2920    1.5110    2.1890 hc        1 MOL      0.069620
    174 H83         2.7550    0.0870    1.2310 hc        1 MOL      0.069620
    175 H84         2.5330    1.9930   -0.7770 hc        1 MOL     -0.015869
    176 H85         1.6490    2.8090    0.4760 hc        1 MOL     -0.015869
    177 N15         5.5500    0.5820    2.8430 n         1 MOL     -0.092597
    178 C54         6.4330    0.3160    4.0230 c3        1 MOL     -0.247112
    179 H86         6.2160   -0.6750    4.4220 h1        1 MOL      0.101133
    180 H87         7.4780    0.3610    3.7120 h1        1 MOL      0.101133
    181 H88         6.2500    1.0650    4.7920 h1        1 MOL      0.101133
    182 H89         5.6380   -0.0710    2.0780 hn        1 MOL      0.131841
    183 Ca1        -1.6170   -0.5900   -1.2520 Ca        1 MOL      1.751202
    184 O25         0.6290   -0.2870   -3.1990 oh        1 MOL     -0.856577
    185 H90         0.4430    0.6460   -3.2290 ho        1 MOL      0.412640
    186 H91         0.5180   -0.5910   -4.0970 ho        1 MOL      0.412640
    187 O26        -0.8630   -2.7570   -2.7310 oh        1 MOL     -0.856577
    188 H92        -1.5130   -3.3750   -2.4080 ho        1 MOL      0.412640
    189 H93        -0.9400   -2.8090   -3.6880 ho        1 MOL      0.412640
@<TRIPOS>BOND
     1    1    2 1   
     2    1    4 1   
     3    1    5 1   
     4    1    6 1   
     5    2    3 2   
     6    2    7 1   
     7    7    8 1   
     8    7   15 1   
     9    8    9 1   
    10    8   11 1   
    11    8   16 1   
    12    9   10 2   
    13    9   19 1   
    14   11   12 1   
    15   11   17 1   
    16   11   18 1   
    17   12   13 1   
    18   12   14 1   
    19   19   20 1   
    20   19   28 1   
    21   20   21 1   
    22   20   23 1   
    23   20   29 1   
    24   21   22 2   
    25   21   41 1   
    26   23   24 1   
    27   23   30 1   
    28   23   31 1   
    29   24   25 1   
    30   24   32 1   
    31   24   33 1   
    32   25   26 1   
    33   25   34 1   
    34   25   35 1   
    35   26   27 1   
    36   26   36 1   
    37   26   37 1   
    38   27   38 1   
    39   27   39 1   
    40   27   40 1   
    41   41   42 1   
    42   41   49 1   
    43   42   43 1   
    44   42   45 1   
    45   42   50 1   
    46   43   44 2   
    47   43   53 1   
    48   45   46 1   
    49   45   51 1   
    50   45   52 1   
    51   46   47 1   
    52   46   48 1   
    53   53   54 1   
    54   53   57 1   
    55   54   55 1   
    56   54   58 1   
    57   54   59 1   
    58   55   56 2   
    59   55   60 1   
    60   60   61 1   
    61   60   68 1   
    62   61   62 1   
    63   61   64 1   
    64   61   69 1   
    65   62   63 2   
    66   62   72 1   
    67   64   65 1   
    68   64   70 1   
    69   64   71 1   
    70   65   66 1   
    71   65   67 1   
    72   72   73 1   
    73   72   76 1   
    74   73   74 1   
    75   73   77 1   
    76   73   78 1   
    77   74   75 2   
    78   74   79 1   
    79   79   80 1   
    80   79   86 1   
    81   80   81 1   
    82   80   83 1   
    83   80   87 1   
    84   81   82 2   
    85   81   93 1   
    86   83   84 1   
    87   83   85 1   
    88   83   88 1   
    89   84   90 1   
    90   84   91 1   
    91   84   92 1   
    92   85   89 1   
    93   93   94 1   
    94   93  101 1   
    95   94   95 1   
    96   94   97 1   
    97   94  102 1   
    98   95   96 2   
    99   95  112 1   
   100   97   98 1   
   101   97   99 1   
   102   97  103 1   
   103   98  100 1   
   104   98  104 1   
   105   98  105 1   
   106   99  106 1   
   107   99  107 1   
   108   99  108 1   
   109  100  109 1   
   110  100  110 1   
   111  100  111 1   
   112  112  113 1   
   113  112  119 1   
   114  113  114 1   
   115  113  116 1   
   116  113  120 1   
   117  114  115 2   
   118  114  126 1   
   119  116  117 1   
   120  116  118 1   
   121  116  121 1   
   122  117  123 1   
   123  117  124 1   
   124  117  125 1   
   125  118  122 1   
   126  126  127 1   
   127  126  133 1   
   128  127  128 1   
   129  127  130 1   
   130  127  134 1   
   131  128  129 2   
   132  128  140 1   
   133  130  131 1   
   134  130  132 1   
   135  130  135 1   
   136  131  137 1   
   137  131  138 1   
   138  131  139 1   
   139  132  136 1   
   140  140  141 1   
   141  140  149 1   
   142  141  142 1   
   143  141  144 1   
   144  141  150 1   
   145  142  143 2   
   146  142  162 1   
   147  144  145 1   
   148  144  151 1   
   149  144  152 1   
   150  145  146 1   
   151  145  153 1   
   152  145  154 1   
   153  146  147 1   
   154  146  155 1   
   155  146  156 1   
   156  147  148 1   
   157  147  157 1   
   158  147  158 1   
   159  148  159 1   
   160  148  160 1   
   161  148  161 1   
   162  162  163 1   
   163  162  171 1   
   164  163  164 1   
   165  163  166 1   
   166  163  172 1   
   167  164  165 2   
   168  164  177 1   
   169  166  167 1   
   170  166  173 1   
   171  166  174 1   
   172  167  168 1   
   173  167  175 1   
   174  167  176 1   
   175  168  169 1   
   176  168  170 1   
   177  177  178 1   
   178  177  182 1   
   179  178  179 1   
   180  178  180 1   
   181  178  181 1   
   182  184  185 1   
   183  184  186 1   
   184  187  188 1   
   185  187  189 1   
@<TRIPOS>SUBSTRUCTURE
     1 MOL         1 TEMP              0 ****  ****    0 ROOT
