@<TRIPOS>MOLECULE
MOL
  175   173     1     0     0
SMALL
resp


@<TRIPOS>ATOM
      1 C1          0.1850    4.5010    5.5320 c3        1 MOL     -0.335700
      2 C2         -0.2110    4.3400    4.0560 c         1 MOL      0.720123
      3 O1          0.5340    4.4590    3.1000 o         1 MOL     -0.555778
      4 H1          0.2230    3.5200    6.0060 hc        1 MOL      0.076925
      5 H2          1.1650    4.9750    5.5960 hc        1 MOL      0.076925
      6 H3         -0.5520    5.1220    6.0400 hc        1 MOL      0.076925
      7 N1         -1.5400    4.1100    3.9460 n         1 MOL     -0.678435
      8 C3         -2.1140    3.6680    2.6490 c3        1 MOL      0.130026
      9 C4         -2.1180    4.8100    1.6160 c         1 MOL      0.710043
     10 O2         -2.4140    5.9340    1.8830 o         1 MOL     -0.609633
     11 C5         -3.5100    3.1940    2.8750 c3        1 MOL     -0.394755
     12 C6         -4.2040    2.6060    1.6790 c         1 MOL      0.750160
     13 O3         -5.4360    2.7020    1.7390 o         1 MOL     -0.645666
     14 O4         -3.5670    2.0880    0.7190 o         1 MOL     -0.645666
     15 H4         -2.1210    4.2190    4.7600 hn        1 MOL      0.345848
     16 H5         -1.4910    2.8690    2.2410 h1        1 MOL      0.110223
     17 H6         -4.0720    4.0380    3.2690 hc        1 MOL      0.078608
     18 H7         -3.4260    2.4230    3.6390 hc        1 MOL      0.078608
     19 N2         -1.9670    4.4160    0.3760 n         1 MOL     -0.606436
     20 C7         -2.0900    5.3480   -0.8020 c3        1 MOL      0.256623
     21 C8         -3.1150    4.9490   -1.8990 c         1 MOL      0.476414
     22 O5         -3.1910    5.6900   -2.9210 o         1 MOL     -0.565713
     23 C9         -0.7420    5.4890   -1.4290 c3        1 MOL     -0.164879
     24 H8         -1.6270    3.4870    0.1960 hn        1 MOL      0.333782
     25 H9         -2.3740    6.3370   -0.4640 h1        1 MOL      0.032777
     26 H10        -0.0380    5.6390   -0.6140 hc        1 MOL      0.038486
     27 H11        -0.4380    4.5630   -1.9190 hc        1 MOL      0.038486
     28 H12        -0.5950    6.3510   -2.0860 hc        1 MOL      0.038486
     29 N3         -3.9000    3.8700   -1.6820 n         1 MOL     -0.482887
     30 C10        -4.7850    3.3070   -2.7410 c3        1 MOL      0.061730
     31 C11        -5.9230    2.3970   -2.3190 c         1 MOL      0.352174
     32 O6         -6.7910    2.0370   -3.1790 o         1 MOL     -0.545559
     33 C12        -3.8370    2.6940   -3.8530 c3        1 MOL     -0.258471
     34 C13        -2.9890    1.6180   -3.1950 c         1 MOL      0.821122
     35 O7         -3.3970    1.0240   -2.1600 o         1 MOL     -0.704322
     36 O8         -2.0130    1.1800   -3.7850 o         1 MOL     -0.704322
     37 H13        -3.5760    3.1250   -1.0810 hn        1 MOL      0.319805
     38 H14        -5.3390    4.1430   -3.1800 h1        1 MOL      0.103909
     39 H15        -3.1550    3.4530   -4.2260 hc        1 MOL      0.064859
     40 H16        -4.4740    2.2280   -4.6070 hc        1 MOL      0.064859
     41 N4         -6.1410    2.0720   -1.0260 n         1 MOL     -0.144614
     42 C14        -7.3040    1.2400   -0.5190 c3        1 MOL     -0.091966
     43 C15        -7.4570   -0.1950   -1.1360 c         1 MOL      0.411557
     44 O9         -8.6050   -0.7650   -1.1810 o         1 MOL     -0.574039
     45 H17        -5.4580    2.2440   -0.3020 hn        1 MOL      0.096921
     46 H18        -8.2960    1.6620   -0.6360 h1        1 MOL      0.074564
     47 H19        -7.1310    1.0150    0.5310 h1        1 MOL      0.074564
     48 N5         -6.3220   -0.7900   -1.5770 n         1 MOL     -0.030442
     49 C16        -6.3460   -2.1990   -1.9370 c3        1 MOL     -0.260544
     50 C17        -6.2890   -3.2150   -0.6990 c         1 MOL      0.550658
     51 O10        -6.5230   -4.4070   -0.9670 o         1 MOL     -0.515182
     52 C18        -5.1800   -2.4490   -2.9300 c3        1 MOL     -0.152672
     53 C19        -3.7900   -2.3070   -2.2860 c         1 MOL      0.494999
     54 N6         -2.7500   -2.7010   -2.9400 n         1 MOL     -0.618197
     55 O11        -3.6130   -1.9060   -1.1710 o         1 MOL     -0.551420
     56 H20        -5.4480   -0.3520   -1.3270 hn        1 MOL      0.115075
     57 H21        -7.2470   -2.4190   -2.5060 h1        1 MOL      0.163948
     58 H22        -5.2920   -1.7660   -3.7770 hc        1 MOL      0.088148
     59 H23        -5.1790   -3.4870   -3.2480 hc        1 MOL      0.088148
     60 H24        -2.7190   -2.9990   -3.9090 hn        1 MOL      0.336263
     61 H25        -1.9220   -2.2940   -2.5370 hn        1 MOL      0.336263
     62 N7         -6.2350   -2.7240    0.5950 n         1 MOL     -0.351597
     63 C20        -6.2800   -3.7000    1.6670 c3        1 MOL     -0.263369
     64 C21        -4.9910   -4.5120    1.8980 c         1 MOL      0.658471
     65 O12        -5.0180   -5.4680    2.6490 o         1 MOL     -0.587998
     66 H26        -6.0420   -1.7390    0.7540 hn        1 MOL      0.335848
     67 H27        -7.1680   -4.3340    1.5760 h1        1 MOL      0.113175
     68 H28        -6.4000   -3.1290    2.5890 h1        1 MOL      0.113175
     69 N8         -3.9130   -4.0420    1.2860 n         1 MOL     -0.573015
     70 C22        -2.5300   -4.5630    1.3590 c3        1 MOL      0.114863
     71 C23        -1.4690   -3.4850    1.3990 c         1 MOL      0.355909
     72 O13        -1.6050   -2.3940    0.8580 o         1 MOL     -0.494023
     73 C24        -2.1790   -5.4840    0.1070 c3        1 MOL      0.366329
     74 C25        -2.8710   -6.8530    0.2850 c3        1 MOL     -0.403491
     75 O14        -2.7360   -4.9050   -1.0180 oh        1 MOL     -0.550410
     76 H29        -4.1040   -3.3960    0.5410 hn        1 MOL      0.449454
     77 H30        -2.5030   -5.2660    2.1930 h1        1 MOL      0.047683
     78 H31        -1.1150   -5.6520   -0.0280 h1        1 MOL      0.016503
     79 H32        -2.3890   -4.0180   -1.1210 ho        1 MOL      0.300501
     80 H33        -2.3250   -7.4480    1.0190 hc        1 MOL      0.103635
     81 H34        -3.9420   -6.8060    0.4590 hc        1 MOL      0.103635
     82 H35        -2.6450   -7.4750   -0.5780 hc        1 MOL      0.103635
     83 N9         -0.3290   -3.7850    2.0360 n         1 MOL     -0.408859
     84 C26         0.9050   -2.9830    2.1440 c3        1 MOL     -0.009602
     85 C27         1.6610   -3.2020    0.8140 c         1 MOL      0.567395
     86 O15         2.0460   -4.2630    0.4920 o         1 MOL     -0.575108
     87 C28         1.6710   -3.3750    3.4880 c3        1 MOL      0.012124
     88 C29         0.9660   -2.6870    4.7000 c3        1 MOL     -0.322623
     89 C30         3.1920   -3.0420    3.4380 c3        1 MOL     -0.194069
     90 C31         1.1980   -1.1450    4.7860 c3        1 MOL     -0.159498
     91 H36        -0.2040   -4.7190    2.3950 hn        1 MOL      0.226370
     92 H37         0.5880   -1.9390    2.2480 h1        1 MOL      0.241816
     93 H38         1.6540   -4.4560    3.6010 hc        1 MOL      0.056080
     94 H39         1.5130   -3.0900    5.5560 hc        1 MOL      0.102397
     95 H40        -0.0910   -2.9290    4.7610 hc        1 MOL      0.102397
     96 H41         3.5350   -2.9550    4.4670 hc        1 MOL      0.058953
     97 H42         3.8200   -3.7970    2.9620 hc        1 MOL      0.058953
     98 H43         3.3850   -2.0660    2.9880 hc        1 MOL      0.058953
     99 H44         0.5550   -0.6500    5.5270 hc        1 MOL      0.064142
    100 H45         2.2260   -0.9500    5.0850 hc        1 MOL      0.064142
    101 H46         1.0630   -0.7450    3.7830 hc        1 MOL      0.064142
    102 N10         1.8230   -2.1170    0.0670 n         1 MOL     -0.228210
    103 C32         2.6570   -1.9870   -1.0710 c3        1 MOL      0.018149
    104 C33         4.0570   -1.4070   -0.8310 c         1 MOL      0.539100
    105 O16         4.3590   -0.7830    0.2260 o         1 MOL     -0.480525
    106 C34         2.0150   -1.1420   -2.1720 c3        1 MOL     -0.041353
    107 C35         0.5590   -1.5730   -2.3480 c         1 MOL      0.596023
    108 O17        -0.3960   -1.1760   -1.5780 o         1 MOL     -0.637369
    109 O18         0.2950   -2.0450   -3.4500 o         1 MOL     -0.637369
    110 H47         1.3940   -1.2840    0.4540 hn        1 MOL      0.082985
    111 H48         2.6950   -2.9730   -1.5410 h1        1 MOL      0.051547
    112 H49         2.5370   -1.3050   -3.1160 hc        1 MOL      0.029042
    113 H50         2.0400   -0.0820   -1.9320 hc        1 MOL      0.029042
    114 N11         5.0360   -1.6980   -1.7190 n         1 MOL     -0.815076
    115 C36         6.4020   -1.4520   -1.3860 c3        1 MOL      0.634292
    116 C37         6.7480    0.0740   -1.1520 c         1 MOL      0.212427
    117 O19         7.5420    0.3090   -0.2000 o         1 MOL     -0.479148
    118 C38         7.3420   -2.0330   -2.4280 c3        1 MOL     -0.454985
    119 C39         8.7860   -2.0410   -1.9610 ca        1 MOL      0.297492
    120 C40         9.2240   -2.5990   -0.7670 ca        1 MOL     -0.307247
    121 C41         9.8050   -1.4910   -2.8490 ca        1 MOL     -0.307247
    122 C42        10.5080   -2.4820   -0.2970 ca        1 MOL      0.000071
    123 C43        11.1330   -1.4170   -2.3830 ca        1 MOL      0.000071
    124 C44        11.4460   -1.8310   -1.0990 ca        1 MOL     -0.208338
    125 H51         4.8340   -2.1970   -2.5710 hn        1 MOL      0.370958
    126 H52         6.6280   -1.8500   -0.4050 h1        1 MOL      0.010128
    127 H53         7.2360   -1.5900   -3.4170 hc        1 MOL      0.109280
    128 H54         6.9900   -3.0560   -2.5730 hc        1 MOL      0.109280
    129 H55         8.5220   -3.0960   -0.1150 ha        1 MOL      0.140482
    130 H56         9.4760   -0.9890   -3.7480 ha        1 MOL      0.140482
    131 H57        10.8250   -2.8960    0.6480 ha        1 MOL      0.090619
    132 H58        11.8990   -0.9950   -3.0190 ha        1 MOL      0.090619
    133 H59        12.4240   -1.7100   -0.6650 ha        1 MOL      0.113978
    134 N12         6.0990    1.0520   -1.8080 n         1 MOL     -0.056550
    135 C45         6.3430    2.4550   -1.5270 c3        1 MOL      0.073863
    136 C46         5.8030    2.8170   -0.1700 c         1 MOL      0.222499
    137 O20         6.3240    3.6790    0.4900 o         1 MOL     -0.472219
    138 C47         5.6200    3.3170   -2.6020 c3        1 MOL      0.206676
    139 C48         5.6330    2.3620   -3.7880 c3        1 MOL     -0.289983
    140 C49         5.4360    0.9740   -3.1010 c3        1 MOL      0.117589
    141 H60         7.4150    2.6630   -1.5960 h1        1 MOL      0.036201
    142 H61         4.5900    3.4860   -2.2930 hc        1 MOL     -0.022469
    143 H62         6.1350    4.2670   -2.6860 hc        1 MOL     -0.022469
    144 H63         4.7560    2.5710   -4.4120 hc        1 MOL      0.081162
    145 H64         6.6000    2.4440   -4.2910 hc        1 MOL      0.081162
    146 H65         4.3970    0.7250   -2.8630 h1        1 MOL      0.004770
    147 H66         5.9170    0.2150   -3.7110 h1        1 MOL      0.004770
    148 N13         4.6910    2.1710    0.2440 n         1 MOL     -0.065561
    149 C50         4.0690    2.2890    1.5300 c3        1 MOL     -0.416562
    150 C51         4.8780    1.6680    2.7250 c         1 MOL      0.533593
    151 O21         4.7870    2.0170    3.9010 o         1 MOL     -0.575821
    152 C52         2.6710    1.6100    1.4980 c3        1 MOL      0.140449
    153 C53         1.8560    2.1530    0.2590 c3        1 MOL      0.129293
    154 C54         0.4630    1.5520    0.1700 c         1 MOL      0.546711
    155 O22         0.2200    0.5380    0.8680 o         1 MOL     -0.725949
    156 O23        -0.4570    2.1280   -0.4710 o         1 MOL     -0.725949
    157 H67         4.2720    1.4940   -0.3810 hn        1 MOL      0.231545
    158 H68         3.8770    3.3400    1.7630 h1        1 MOL      0.188463
    159 H69         2.0500    1.8400    2.3600 hc        1 MOL     -0.028135
    160 H70         2.8080    0.5370    1.3980 hc        1 MOL     -0.028135
    161 H71         2.3620    1.9020   -0.6760 hc        1 MOL     -0.013467
    162 H72         1.8020    3.2410    0.2950 hc        1 MOL     -0.013467
    163 N14         5.6730    0.6330    2.4780 n         1 MOL     -0.079804
    164 C55         6.5130   -0.0850    3.4370 c3        1 MOL     -0.219429
    165 H73         5.9440   -0.9060    3.8740 h1        1 MOL      0.082908
    166 H74         7.3890   -0.4830    2.9260 h1        1 MOL      0.082908
    167 H75         6.8300    0.5970    4.2250 h1        1 MOL      0.082908
    168 H76         5.6610    0.2120    1.5600 hn        1 MOL      0.139413
    169 Ca1        -2.1630    0.0620   -0.1500 Ca        1 MOL      1.672615
    170 O24        -1.9140    0.3680    2.4670 oh        1 MOL     -0.877704
    171 H77        -0.9700    0.2290    2.5430 ho        1 MOL      0.415982
    172 H78        -2.1780    0.7530    3.3030 ho        1 MOL      0.415982
    173 O25        -4.6440   -0.5920    1.6960 oh        1 MOL     -0.877704
    174 H79        -3.8280   -0.4380    2.1690 ho        1 MOL      0.415982
    175 H80        -5.3240   -0.2660    2.2810 ho        1 MOL      0.415982
@<TRIPOS>BOND
     1    1    2 1   
     2    1    4 1   
     3    1    5 1   
     4    1    6 1   
     5    2    3 2   
     6    2    7 1   
     7    7    8 1   
     8    7   15 1   
     9    8    9 1   
    10    8   11 1   
    11    8   16 1   
    12    9   10 2   
    13    9   19 1   
    14   11   12 1   
    15   11   17 1   
    16   11   18 1   
    17   12   13 1   
    18   12   14 1   
    19   19   20 1   
    20   19   24 1   
    21   20   21 1   
    22   20   23 1   
    23   20   25 1   
    24   21   22 2   
    25   21   29 1   
    26   23   26 1   
    27   23   27 1   
    28   23   28 1   
    29   29   30 1   
    30   29   37 1   
    31   30   31 1   
    32   30   33 1   
    33   30   38 1   
    34   31   32 2   
    35   31   41 1   
    36   33   34 1   
    37   33   39 1   
    38   33   40 1   
    39   34   35 1   
    40   34   36 1   
    41   41   42 1   
    42   41   45 1   
    43   42   43 1   
    44   42   46 1   
    45   42   47 1   
    46   43   44 2   
    47   43   48 1   
    48   48   49 1   
    49   48   56 1   
    50   49   50 1   
    51   49   52 1   
    52   49   57 1   
    53   50   51 2   
    54   50   62 1   
    55   52   53 1   
    56   52   58 1   
    57   52   59 1   
    58   53   54 1   
    59   53   55 2   
    60   54   60 1   
    61   54   61 1   
    62   62   63 1   
    63   62   66 1   
    64   63   64 1   
    65   63   67 1   
    66   63   68 1   
    67   64   65 2   
    68   64   69 1   
    69   69   70 1   
    70   69   76 1   
    71   70   71 1   
    72   70   73 1   
    73   70   77 1   
    74   71   72 2   
    75   71   83 1   
    76   73   74 1   
    77   73   75 1   
    78   73   78 1   
    79   74   80 1   
    80   74   81 1   
    81   74   82 1   
    82   75   79 1   
    83   83   84 1   
    84   83   91 1   
    85   84   85 1   
    86   84   87 1   
    87   84   92 1   
    88   85   86 2   
    89   85  102 1   
    90   87   88 1   
    91   87   89 1   
    92   87   93 1   
    93   88   90 1   
    94   88   94 1   
    95   88   95 1   
    96   89   96 1   
    97   89   97 1   
    98   89   98 1   
    99   90   99 1   
   100   90  100 1   
   101   90  101 1   
   102  102  103 1   
   103  102  110 1   
   104  103  104 1   
   105  103  106 1   
   106  103  111 1   
   107  104  105 2   
   108  104  114 1   
   109  106  107 1   
   110  106  112 1   
   111  106  113 1   
   112  107  108 1   
   113  107  109 1   
   114  114  115 1   
   115  114  125 1   
   116  115  116 1   
   117  115  118 1   
   118  115  126 1   
   119  116  117 2   
   120  116  134 1   
   121  118  119 1   
   122  118  127 1   
   123  118  128 1   
   124  119  120 ar  
   125  119  121 ar  
   126  120  122 ar  
   127  120  129 1   
   128  121  123 ar  
   129  121  130 1   
   130  122  124 ar  
   131  122  131 1   
   132  123  124 ar  
   133  123  132 1   
   134  124  133 1   
   135  134  135 1   
   136  134  140 1   
   137  135  136 1   
   138  135  138 1   
   139  135  141 1   
   140  136  137 2   
   141  136  148 1   
   142  138  139 1   
   143  138  142 1   
   144  138  143 1   
   145  139  140 1   
   146  139  144 1   
   147  139  145 1   
   148  140  146 1   
   149  140  147 1   
   150  148  149 1   
   151  148  157 1   
   152  149  150 1   
   153  149  152 1   
   154  149  158 1   
   155  150  151 2   
   156  150  163 1   
   157  152  153 1   
   158  152  159 1   
   159  152  160 1   
   160  153  154 1   
   161  153  161 1   
   162  153  162 1   
   163  154  155 1   
   164  154  156 1   
   165  163  164 1   
   166  163  168 1   
   167  164  165 1   
   168  164  166 1   
   169  164  167 1   
   170  170  171 1   
   171  170  172 1   
   172  173  174 1   
   173  173  175 1   
@<TRIPOS>SUBSTRUCTURE
     1 MOL         1 TEMP              0 ****  ****    0 ROOT
