@<TRIPOS>MOLECULE
MOL
  189   185     1     0     0
SMALL
resp


@<TRIPOS>ATOM
      1 C1          0.1050    1.6340    6.3000 c3        1 MOL     -0.317676
      2 C2         -0.2850    1.5860    4.8390 c         1 MOL      0.750657
      3 O1          0.4120    2.1690    3.9900 o         1 MOL     -0.650393
      4 H1         -0.7880    1.5410    6.9180 hc        1 MOL      0.080089
      5 H2          0.7880    0.8140    6.5220 hc        1 MOL      0.080089
      6 H3          0.5970    2.5840    6.5150 hc        1 MOL      0.080089
      7 N1         -1.3600    0.9280    4.4590 n         1 MOL     -0.601977
      8 C3         -1.8430    0.9530    3.0920 c3        1 MOL      0.000182
      9 C4         -2.4190    2.4000    2.8340 c         1 MOL      0.662840
     10 O2         -3.2730    2.8750    3.5050 o         1 MOL     -0.546181
     11 C5         -2.8970   -0.1800    2.9060 c3        1 MOL     -0.028341
     12 C6         -3.6040   -0.0800    1.5330 c         1 MOL      0.496102
     13 O3         -2.9550    0.2610    0.5290 o         1 MOL     -0.599922
     14 O4         -4.8680   -0.3370    1.5170 o         1 MOL     -0.599922
     15 H4         -1.8350    0.4120    5.1890 hn        1 MOL      0.332358
     16 H5         -0.9940    0.7410    2.4430 h1        1 MOL      0.064576
     17 H6         -3.5990   -0.1770    3.7310 hc        1 MOL      0.019086
     18 H7         -2.4410   -1.1720    2.9610 hc        1 MOL      0.019086
     19 N2         -1.7370    3.1270    1.8660 n         1 MOL     -0.255509
     20 C7         -1.8390    4.5950    1.7710 c3        1 MOL     -0.159412
     21 C8         -3.0520    4.9610    0.7870 c         1 MOL      0.394055
     22 O5         -3.7700    5.9780    0.9710 o         1 MOL     -0.592206
     23 C9         -0.5550    5.1460    1.3010 c3        1 MOL      0.064322
     24 C10        -0.5530    6.6960    1.1820 c3        1 MOL     -0.046296
     25 C11         0.8480    7.2600    0.7780 c3        1 MOL     -0.055210
     26 C12         0.6790    8.7000    0.3210 c3        1 MOL     -0.051603
     27 N3          1.9570    9.1760   -0.1670 n4        1 MOL     -0.155282
     28 H8         -1.2310    2.6030    1.1740 hn        1 MOL      0.136054
     29 H9         -1.9990    4.9620    2.7910 h1        1 MOL      0.131802
     30 H10        -0.2660    4.7160    0.3460 hc        1 MOL      0.047231
     31 H11         0.2260    4.8260    1.9860 hc        1 MOL      0.047231
     32 H12        -0.8610    7.1300    2.1270 hc        1 MOL      0.040094
     33 H13        -1.1810    6.9340    0.3150 hc        1 MOL      0.040094
     34 H14         1.3330    6.6480    0.0200 hc        1 MOL      0.024882
     35 H15         1.5130    7.1670    1.6370 hc        1 MOL      0.024882
     36 H16         0.3290    9.2260    1.2140 hx        1 MOL      0.114470
     37 H17        -0.1080    8.6900   -0.4330 hx        1 MOL      0.114470
     38 H18         2.4370    8.4050   -0.6130 hn        1 MOL      0.258311
     39 H19         1.9040    9.9290   -0.8370 hn        1 MOL      0.258311
     40 H20         2.6350    9.4350    0.5380 hn        1 MOL      0.258311
     41 N4         -3.4080    4.1210   -0.1570 n         1 MOL     -0.055733
     42 C13        -4.4580    4.2270   -1.2590 c3        1 MOL     -0.062091
     43 C14        -5.5930    3.1820   -1.0770 c         1 MOL      0.457991
     44 O6         -6.5250    3.1360   -1.8880 o         1 MOL     -0.477794
     45 C15        -3.8950    4.2840   -2.6470 c3        1 MOL     -0.261811
     46 C16        -2.9140    3.1210   -2.9200 c         1 MOL      0.749257
     47 O7         -2.5980    2.3110   -1.9930 o         1 MOL     -0.702219
     48 O8         -2.4950    2.8830   -4.0560 o         1 MOL     -0.702219
     49 H21        -2.8560    3.2720   -0.2330 hn        1 MOL      0.089737
     50 H22        -4.8910    5.2100   -1.0950 h1        1 MOL      0.109628
     51 H23        -3.3290    5.2150   -2.6280 hc        1 MOL      0.080212
     52 H24        -4.5860    4.2940   -3.4850 hc        1 MOL      0.080212
     53 N5         -5.6160    2.4590    0.0330 n         1 MOL     -0.351194
     54 C17        -6.9510    1.9000    0.4270 c3        1 MOL     -0.016373
     55 C18        -7.4240    0.7630   -0.4270 c         1 MOL      0.383072
     56 O9         -8.5750    0.7570   -0.9070 o         1 MOL     -0.547075
     57 H25        -4.8260    2.4790    0.6590 hn        1 MOL      0.271909
     58 H26        -7.7590    2.6240    0.3550 h1        1 MOL      0.072110
     59 H27        -6.9020    1.5960    1.4840 h1        1 MOL      0.072110
     60 N6         -6.5710   -0.2060   -0.7460 n         1 MOL     -0.030273
     61 C19        -7.0050   -1.3140   -1.7220 c3        1 MOL      0.050841
     62 C20        -6.9750   -2.6260   -0.9580 c         1 MOL      0.209943
     63 O10        -7.4420   -3.6250   -1.5310 o         1 MOL     -0.454982
     64 C21        -6.1390   -1.2660   -3.0280 c3        1 MOL     -0.351814
     65 C22        -4.7280   -1.1860   -2.6190 c         1 MOL      0.629588
     66 O11        -4.1460   -2.1200   -2.0300 o         1 MOL     -0.616430
     67 O12        -4.0460   -0.1570   -2.9360 o         1 MOL     -0.616430
     68 H28        -5.5880   -0.0910   -0.5610 hn        1 MOL      0.101741
     69 H29        -7.9850   -1.0320   -2.1060 h1        1 MOL      0.133398
     70 H30        -6.4070   -0.3060   -3.4650 hc        1 MOL      0.132674
     71 H31        -6.2860   -2.1810   -3.5940 hc        1 MOL      0.132674
     72 N7         -6.6410   -2.6410    0.3550 n         1 MOL     -0.087986
     73 C23        -6.5890   -3.8320    1.1840 c3        1 MOL     -0.245811
     74 C24        -5.2530   -4.6980    0.9640 c         1 MOL      0.592359
     75 O13        -5.1950   -5.8850    1.2310 o         1 MOL     -0.567635
     76 H32        -6.3770   -1.7560    0.7390 hn        1 MOL      0.151990
     77 H33        -7.4320   -4.5070    0.9860 h1        1 MOL      0.113707
     78 H34        -6.6010   -3.4540    2.2030 h1        1 MOL      0.113707
     79 N8         -4.2580   -4.0620    0.3330 n         1 MOL     -0.281479
     80 C25        -2.8680   -4.5590    0.1300 c3        1 MOL     -0.285146
     81 C26        -1.7320   -3.5650    0.2770 c         1 MOL      0.708648
     82 O14        -1.7570   -2.3820    0.0140 o         1 MOL     -0.615077
     83 C27        -2.8140   -5.3150   -1.2540 c3        1 MOL      0.536756
     84 C28        -3.1470   -6.8090   -1.2000 c3        1 MOL     -0.279444
     85 O15        -3.6910   -4.7450   -2.2130 oh        1 MOL     -0.681538
     86 H35        -4.3830   -3.1550   -0.0940 hn        1 MOL      0.244073
     87 H36        -2.7250   -5.2350    0.9680 h1        1 MOL      0.097609
     88 H37        -1.8160   -5.2520   -1.6850 h1        1 MOL     -0.061064
     89 H38        -3.8470   -3.8340   -1.9310 ho        1 MOL      0.457472
     90 H39        -3.5010   -7.2530   -2.1250 hc        1 MOL      0.063622
     91 H40        -2.2840   -7.3760   -0.8450 hc        1 MOL      0.063622
     92 H41        -3.9710   -7.0240   -0.5230 hc        1 MOL      0.063622
     93 N9         -0.6220   -4.1550    0.6970 n         1 MOL     -0.585351
     94 C29         0.6180   -3.4950    1.0280 c3        1 MOL      0.041104
     95 C30         1.8430   -3.9030    0.1380 c         1 MOL      0.521776
     96 O16         2.1490   -5.0930    0.0480 o         1 MOL     -0.541504
     97 C31         0.9110   -3.6540    2.5760 c3        1 MOL      0.086697
     98 C32        -0.2800   -2.9460    3.4320 c3        1 MOL     -0.060428
     99 C33         2.2720   -3.2320    3.0500 c3        1 MOL     -0.227496
    100 C34         0.0640   -3.0380    4.9640 c3        1 MOL     -0.124063
    101 H42        -0.6940   -5.1320    0.9090 hn        1 MOL      0.303198
    102 H43         0.4390   -2.4420    0.8210 h1        1 MOL      0.129437
    103 H44         0.8260   -4.7140    2.8040 hc        1 MOL      0.016878
    104 H45        -1.2360   -3.3520    3.1070 hc        1 MOL      0.043689
    105 H46        -0.3730   -1.8950    3.1930 hc        1 MOL      0.043689
    106 H47         2.1200   -2.1750    3.2880 hc        1 MOL      0.057555
    107 H48         2.5540   -3.9040    3.8510 hc        1 MOL      0.057555
    108 H49         3.0760   -3.4040    2.3320 hc        1 MOL      0.057555
    109 H50        -0.7080   -2.5180    5.5370 hc        1 MOL      0.030665
    110 H51         0.0670   -4.0760    5.3110 hc        1 MOL      0.030665
    111 H52         1.0350   -2.6310    5.2380 hc        1 MOL      0.030665
    112 N10         2.4360   -2.8810   -0.4880 n         1 MOL     -0.236167
    113 C35         3.5900   -2.9690   -1.4050 c3        1 MOL     -0.042088
    114 C36         4.9260   -2.8960   -0.7370 c         1 MOL      0.353891
    115 O17         5.0120   -2.6350    0.4590 o         1 MOL     -0.321629
    116 C37         3.4640   -1.8860   -2.4980 c3        1 MOL      0.126034
    117 C38         2.1750   -1.9880   -3.2950 c3        1 MOL     -0.346986
    118 O18         3.4650   -0.6480   -1.7840 oh        1 MOL     -0.454735
    119 H53         2.1400   -1.9380   -0.3090 hn        1 MOL      0.032039
    120 H54         3.5430   -3.9670   -1.8630 h1        1 MOL      0.077820
    121 H55         4.3180   -1.9750   -3.1700 h1        1 MOL      0.026717
    122 H56         2.5210   -0.4850   -1.8540 ho        1 MOL      0.321879
    123 H57         2.1530   -1.1060   -3.9340 hc        1 MOL      0.126175
    124 H58         2.1650   -2.8820   -3.9050 hc        1 MOL      0.126175
    125 H59         1.3520   -1.7980   -2.6030 hc        1 MOL      0.126175
    126 N11         5.9540   -3.1610   -1.4650 n         1 MOL     -0.268611
    127 C39         7.3320   -2.8960   -0.9010 c3        1 MOL     -0.239652
    128 C40         7.6200   -1.4820   -0.5520 c         1 MOL      0.523167
    129 O19         8.5270   -1.3150    0.3400 o         1 MOL     -0.533323
    130 C41         8.3810   -3.6410   -1.7210 c3        1 MOL      0.409160
    131 C42         8.3050   -5.1310   -1.8390 c3        1 MOL     -0.327958
    132 O20         8.5140   -3.1980   -3.0440 oh        1 MOL     -0.626911
    133 H60         5.8190   -3.5330   -2.3980 hn        1 MOL      0.265199
    134 H61         7.4250   -3.4310    0.0450 h1        1 MOL      0.133813
    135 H62         9.3130   -3.4140   -1.2210 h1        1 MOL      0.012660
    136 H63         8.6200   -4.0540   -3.4610 ho        1 MOL      0.375225
    137 H64         8.3800   -5.6530   -0.8820 hc        1 MOL      0.090616
    138 H65         7.3720   -5.3580   -2.3390 hc        1 MOL      0.090616
    139 H66         9.1430   -5.6200   -2.3390 hc        1 MOL      0.090616
    140 N12         6.8970   -0.5320   -1.0100 n         1 MOL     -0.209700
    141 C43         6.9460    0.9130   -0.5410 c3        1 MOL     -0.165190
    142 C44         6.0840    1.1940    0.6620 c         1 MOL      0.448048
    143 O21         6.6070    1.7830    1.6110 o         1 MOL     -0.505614
    144 C45         6.6080    1.8320   -1.7830 c3        1 MOL      0.021410
    145 C46         6.8930    3.3170   -1.6700 c3        1 MOL      0.034441
    146 C47         6.2910    4.1900   -2.7830 c3        1 MOL     -0.146701
    147 C48         6.7890    5.5880   -2.6860 c3        1 MOL      0.173705
    148 N13         6.3770    6.4510   -3.8100 n4        1 MOL     -0.244765
    149 H67         6.2910   -0.7220   -1.8040 hn        1 MOL      0.217609
    150 H68         7.9680    1.1190   -0.2140 h1        1 MOL      0.117165
    151 H69         5.5590    1.6620   -2.0200 hc        1 MOL      0.003825
    152 H70         7.1660    1.4440   -2.6330 hc        1 MOL      0.003825
    153 H71         7.9690    3.4670   -1.7580 hc        1 MOL      0.033133
    154 H72         6.5390    3.6490   -0.6920 hc        1 MOL      0.033133
    155 H73         5.2190    4.2440   -2.6110 hc        1 MOL      0.052696
    156 H74         6.6440    3.7360   -3.7140 hc        1 MOL      0.052696
    157 H75         7.8730    5.6950   -2.6520 hx        1 MOL      0.032983
    158 H76         6.3820    5.9520   -1.7430 hx        1 MOL      0.032983
    159 H77         6.4270    7.4330   -3.6320 hn        1 MOL      0.249281
    160 H78         6.9030    6.1830   -4.6280 hn        1 MOL      0.249281
    161 H79         5.4130    6.3110   -4.1050 hn        1 MOL      0.249281
    162 N14         4.9430    0.4960    0.6840 n         1 MOL     -0.119087
    163 C49         4.1630    0.6590    1.9440 c3        1 MOL     -0.334679
    164 C50         4.6610   -0.1940    3.1330 c         1 MOL      0.517409
    165 O22         4.5710    0.2270    4.2990 o         1 MOL     -0.553060
    166 C51         2.7740    0.1900    1.5690 c3        1 MOL      0.210044
    167 C52         2.0700    1.1680    0.6250 c3        1 MOL      0.033315
    168 C53         0.7910    0.5830    0.0310 c         1 MOL      0.515951
    169 O23         0.7440   -0.4200   -0.7120 o         1 MOL     -0.620465
    170 O24        -0.2440    1.2640   -0.0370 o         1 MOL     -0.620465
    171 H80         4.6870   -0.0210   -0.1380 hn        1 MOL      0.207927
    172 H81         4.0440    1.6720    2.2940 h1        1 MOL      0.151288
    173 H82         2.2710    0.0370    2.5250 hc        1 MOL      0.019602
    174 H83         2.8220   -0.8030    1.1130 hc        1 MOL      0.019602
    175 H84         2.7700    1.3230   -0.1930 hc        1 MOL     -0.039498
    176 H85         1.9740    2.1660    1.0590 hc        1 MOL     -0.039498
    177 N15         5.2670   -1.3690    2.9310 n         1 MOL     -0.044605
    178 C54         5.9280   -2.1670    3.9940 c3        1 MOL     -0.369969
    179 H86         5.2270   -2.3320    4.8110 h1        1 MOL      0.131243
    180 H87         6.2420   -3.1280    3.5850 h1        1 MOL      0.131243
    181 H88         6.7990   -1.6270    4.3650 h1        1 MOL      0.131243
    182 H89         5.3070   -1.7400    1.9900 hn        1 MOL      0.075059
    183 Ca1        -1.8090   -0.1670   -1.6620 Ca        1 MOL      1.732533
    184 O25        -0.9150    0.9140   -3.9560 oh        1 MOL     -0.938039
    185 H90        -0.2230    0.9360   -4.6230 ho        1 MOL      0.423200
    186 H91        -1.4770    1.6520   -4.1740 ho        1 MOL      0.423200
    187 O26        -1.3020   -2.1490   -3.3380 oh        1 MOL     -0.938039
    188 H92        -2.1980   -2.2350   -3.6590 ho        1 MOL      0.423200
    189 H93        -0.7630   -2.5230   -4.0280 ho        1 MOL      0.423200
@<TRIPOS>BOND
     1    1    2 1   
     2    1    4 1   
     3    1    5 1   
     4    1    6 1   
     5    2    3 2   
     6    2    7 1   
     7    7    8 1   
     8    7   15 1   
     9    8    9 1   
    10    8   11 1   
    11    8   16 1   
    12    9   10 2   
    13    9   19 1   
    14   11   12 1   
    15   11   17 1   
    16   11   18 1   
    17   12   13 1   
    18   12   14 1   
    19   19   20 1   
    20   19   28 1   
    21   20   21 1   
    22   20   23 1   
    23   20   29 1   
    24   21   22 2   
    25   21   41 1   
    26   23   24 1   
    27   23   30 1   
    28   23   31 1   
    29   24   25 1   
    30   24   32 1   
    31   24   33 1   
    32   25   26 1   
    33   25   34 1   
    34   25   35 1   
    35   26   27 1   
    36   26   36 1   
    37   26   37 1   
    38   27   38 1   
    39   27   39 1   
    40   27   40 1   
    41   41   42 1   
    42   41   49 1   
    43   42   43 1   
    44   42   45 1   
    45   42   50 1   
    46   43   44 2   
    47   43   53 1   
    48   45   46 1   
    49   45   51 1   
    50   45   52 1   
    51   46   47 1   
    52   46   48 1   
    53   53   54 1   
    54   53   57 1   
    55   54   55 1   
    56   54   58 1   
    57   54   59 1   
    58   55   56 2   
    59   55   60 1   
    60   60   61 1   
    61   60   68 1   
    62   61   62 1   
    63   61   64 1   
    64   61   69 1   
    65   62   63 2   
    66   62   72 1   
    67   64   65 1   
    68   64   70 1   
    69   64   71 1   
    70   65   66 1   
    71   65   67 1   
    72   72   73 1   
    73   72   76 1   
    74   73   74 1   
    75   73   77 1   
    76   73   78 1   
    77   74   75 2   
    78   74   79 1   
    79   79   80 1   
    80   79   86 1   
    81   80   81 1   
    82   80   83 1   
    83   80   87 1   
    84   81   82 2   
    85   81   93 1   
    86   83   84 1   
    87   83   85 1   
    88   83   88 1   
    89   84   90 1   
    90   84   91 1   
    91   84   92 1   
    92   85   89 1   
    93   93   94 1   
    94   93  101 1   
    95   94   95 1   
    96   94   97 1   
    97   94  102 1   
    98   95   96 2   
    99   95  112 1   
   100   97   98 1   
   101   97   99 1   
   102   97  103 1   
   103   98  100 1   
   104   98  104 1   
   105   98  105 1   
   106   99  106 1   
   107   99  107 1   
   108   99  108 1   
   109  100  109 1   
   110  100  110 1   
   111  100  111 1   
   112  112  113 1   
   113  112  119 1   
   114  113  114 1   
   115  113  116 1   
   116  113  120 1   
   117  114  115 2   
   118  114  126 1   
   119  116  117 1   
   120  116  118 1   
   121  116  121 1   
   122  117  123 1   
   123  117  124 1   
   124  117  125 1   
   125  118  122 1   
   126  126  127 1   
   127  126  133 1   
   128  127  128 1   
   129  127  130 1   
   130  127  134 1   
   131  128  129 2   
   132  128  140 1   
   133  130  131 1   
   134  130  132 1   
   135  130  135 1   
   136  131  137 1   
   137  131  138 1   
   138  131  139 1   
   139  132  136 1   
   140  140  141 1   
   141  140  149 1   
   142  141  142 1   
   143  141  144 1   
   144  141  150 1   
   145  142  143 2   
   146  142  162 1   
   147  144  145 1   
   148  144  151 1   
   149  144  152 1   
   150  145  146 1   
   151  145  153 1   
   152  145  154 1   
   153  146  147 1   
   154  146  155 1   
   155  146  156 1   
   156  147  148 1   
   157  147  157 1   
   158  147  158 1   
   159  148  159 1   
   160  148  160 1   
   161  148  161 1   
   162  162  163 1   
   163  162  171 1   
   164  163  164 1   
   165  163  166 1   
   166  163  172 1   
   167  164  165 2   
   168  164  177 1   
   169  166  167 1   
   170  166  173 1   
   171  166  174 1   
   172  167  168 1   
   173  167  175 1   
   174  167  176 1   
   175  168  169 1   
   176  168  170 1   
   177  177  178 1   
   178  177  182 1   
   179  178  179 1   
   180  178  180 1   
   181  178  181 1   
   182  184  185 1   
   183  184  186 1   
   184  187  188 1   
   185  187  189 1   
@<TRIPOS>SUBSTRUCTURE
     1 MOL         1 TEMP              0 ****  ****    0 ROOT
