@<TRIPOS>MOLECULE
MOL
  189   185     1     0     0
SMALL
resp


@<TRIPOS>ATOM
      1 C1         -0.3620    1.8930    6.1340 c3        1 MOL     -0.274804
      2 C2         -0.6670    1.4210    4.7320 c         1 MOL      0.663237
      3 O1          0.1680    1.6180    3.8780 o         1 MOL     -0.587205
      4 H1          0.0340    1.0620    6.7180 hc        1 MOL      0.067709
      5 H2          0.3770    2.6940    6.0950 hc        1 MOL      0.067709
      6 H3         -1.2750    2.2610    6.6010 hc        1 MOL      0.067709
      7 N1         -1.8900    0.9210    4.4490 n         1 MOL     -0.622755
      8 C3         -2.3280    0.9800    3.0790 c3        1 MOL      0.272983
      9 C4         -2.6360    2.4270    2.7430 c         1 MOL      0.370154
     10 O2         -3.6210    3.0400    3.2840 o         1 MOL     -0.545913
     11 C5         -3.6060    0.1150    2.8540 c3        1 MOL     -0.291279
     12 C6         -4.2180    0.4370    1.4290 c         1 MOL      0.690896
     13 O3         -5.4400    0.2410    1.3450 o         1 MOL     -0.592870
     14 O4         -3.3810    0.7670    0.5440 o         1 MOL     -0.592870
     15 H4         -2.5290    0.7480    5.2130 hn        1 MOL      0.342190
     16 H5         -1.5500    0.6340    2.3960 h1        1 MOL     -0.041792
     17 H6         -4.2960    0.6010    3.5360 hc        1 MOL      0.060829
     18 H7         -3.3990   -0.9290    3.0600 hc        1 MOL      0.060829
     19 N2         -1.8530    2.9780    1.8300 n         1 MOL     -0.216550
     20 C7         -1.9100    4.4060    1.5410 c3        1 MOL      0.003528
     21 C8         -2.8300    4.7390    0.4090 c         1 MOL      0.501484
     22 O5         -2.9780    5.9070    0.0650 o         1 MOL     -0.583029
     23 C9         -0.4810    5.0560    1.4100 c3        1 MOL      0.054838
     24 C10         0.5050    4.8510    2.5760 c3        1 MOL     -0.014425
     25 C11         1.8640    5.5030    2.2610 c3        1 MOL     -0.214269
     26 C12         2.9160    5.2420    3.4330 c3        1 MOL      0.239360
     27 N3          4.0520    6.1770    3.3370 n4        1 MOL     -0.505304
     28 H8         -1.1010    2.4360    1.4160 hn        1 MOL      0.332976
     29 H9         -2.3370    4.8530    2.4460 h1        1 MOL      0.055717
     30 H10        -0.6660    6.1250    1.3580 hc        1 MOL      0.003103
     31 H11         0.0710    4.7660    0.5130 hc        1 MOL      0.003103
     32 H12         0.6480    3.7790    2.7370 hc        1 MOL      0.030944
     33 H13         0.0600    5.3360    3.4470 hc        1 MOL      0.030944
     34 H14         1.6750    6.5720    2.2450 hc        1 MOL      0.061930
     35 H15         2.3460    5.0690    1.3780 hc        1 MOL      0.061930
     36 H16         3.2570    4.2140    3.3490 hx        1 MOL      0.046234
     37 H17         2.4900    5.4920    4.4000 hx        1 MOL      0.046234
     38 H18         4.4760    6.2560    2.4220 hn        1 MOL      0.353148
     39 H19         3.7180    7.0420    3.7250 hn        1 MOL      0.353148
     40 H20         4.8570    5.9270    3.9060 hn        1 MOL      0.353148
     41 N4         -3.4200    3.7800   -0.2900 n         1 MOL     -0.236196
     42 C13        -4.1400    4.0260   -1.6480 c3        1 MOL     -0.255239
     43 C14        -5.2790    3.0990   -2.0440 c         1 MOL      0.588979
     44 O6         -5.6920    2.9320   -3.2290 o         1 MOL     -0.496471
     45 C15        -3.1170    4.2190   -2.7490 c3        1 MOL     -0.184868
     46 C16        -2.2840    2.9910   -3.0860 c         1 MOL      0.864704
     47 O7         -1.3670    3.1940   -3.8720 o         1 MOL     -0.771366
     48 O8         -2.4200    1.9090   -2.4970 o         1 MOL     -0.771366
     49 H21        -3.2830    2.8120   -0.0400 hn        1 MOL      0.100302
     50 H22        -4.5670    5.0270   -1.6080 h1        1 MOL      0.171709
     51 H23        -2.3420    4.8580   -2.3450 hc        1 MOL      0.057110
     52 H24        -3.4710    4.7330   -3.6420 hc        1 MOL      0.057110
     53 N5         -6.0010    2.6160   -1.0230 n         1 MOL     -0.401293
     54 C17        -7.4560    2.1720   -1.0910 c3        1 MOL     -0.077439
     55 C18        -7.7140    0.7900   -1.7800 c         1 MOL      0.507414
     56 O9         -8.5990    0.5950   -2.5680 o         1 MOL     -0.544155
     57 H25        -5.5460    2.6640   -0.1190 hn        1 MOL      0.275611
     58 H26        -7.9860    2.9730   -1.6100 h1        1 MOL      0.074534
     59 H27        -7.8930    2.0690   -0.1020 h1        1 MOL      0.074534
     60 N6         -6.8360   -0.1800   -1.3920 n         1 MOL     -0.264085
     61 C19        -6.9670   -1.5800   -1.9210 c3        1 MOL      0.018867
     62 C20        -7.0440   -2.6450   -0.7450 c         1 MOL      0.315511
     63 O10        -6.9650   -3.8490   -0.9800 o         1 MOL     -0.495826
     64 C21        -5.8600   -1.8030   -2.8920 c3        1 MOL     -0.040136
     65 C22        -4.4130   -1.4640   -2.3550 c         1 MOL      0.499020
     66 O11        -3.6650   -0.7720   -3.1020 o         1 MOL     -0.642627
     67 O12        -3.9990   -1.8340   -1.2320 o         1 MOL     -0.642627
     68 H28        -6.1230    0.0490   -0.7220 hn        1 MOL      0.200942
     69 H29        -7.8790   -1.7450   -2.4940 h1        1 MOL      0.098858
     70 H30        -6.0770   -1.1760   -3.7550 hc        1 MOL      0.040084
     71 H31        -5.9490   -2.8460   -3.1930 hc        1 MOL      0.040084
     72 N7         -6.6670   -2.2090    0.4710 n         1 MOL     -0.175031
     73 C23        -6.6200   -3.1250    1.6600 c3        1 MOL     -0.102674
     74 C24        -5.2460   -3.8200    1.7420 c         1 MOL      0.444645
     75 O13        -5.1880   -4.8430    2.3890 o         1 MOL     -0.572198
     76 H32        -6.7550   -1.2110    0.6620 hn        1 MOL      0.160650
     77 H33        -7.4540   -3.8310    1.5810 h1        1 MOL      0.099515
     78 H34        -6.8220   -2.5280    2.5430 h1        1 MOL      0.099515
     79 N8         -4.2030   -3.4400    1.0310 n         1 MOL     -0.127231
     80 C25        -2.9610   -4.2120    0.8010 c3        1 MOL     -0.108060
     81 C26        -1.7470   -3.2590    0.8290 c         1 MOL      0.596313
     82 O14        -1.8880   -2.0220    0.5360 o         1 MOL     -0.651451
     83 C27        -3.0290   -5.0250   -0.4620 c3        1 MOL      0.503772
     84 C28        -4.2380   -5.9740   -0.7250 c3        1 MOL     -0.335077
     85 O15        -2.9770   -4.1260   -1.5840 oh        1 MOL     -0.727027
     86 H35        -4.3160   -2.6920    0.3590 hn        1 MOL      0.100086
     87 H36        -2.8610   -5.0040    1.5330 h1        1 MOL      0.055492
     88 H37        -2.1420   -5.6550   -0.4160 h1        1 MOL     -0.049424
     89 H38        -3.5080   -3.3540   -1.3640 ho        1 MOL      0.532387
     90 H39        -4.2720   -6.4070   -1.7260 hc        1 MOL      0.082463
     91 H40        -4.1790   -6.7660    0.0250 hc        1 MOL      0.082463
     92 H41        -5.1540   -5.4050   -0.5500 hc        1 MOL      0.082463
     93 N9         -0.6100   -3.8080    1.2490 n         1 MOL     -0.578044
     94 C29         0.6870   -3.1400    1.5190 c3        1 MOL     -0.011971
     95 C30         1.7810   -3.6210    0.6260 c         1 MOL      0.558305
     96 O16         2.1610   -4.8050    0.6510 o         1 MOL     -0.561186
     97 C31         1.0200   -3.2180    3.0250 c3        1 MOL     -0.011578
     98 C32        -0.1550   -2.7060    3.8530 c3        1 MOL      0.057111
     99 C33         2.3130   -2.5580    3.3370 c3        1 MOL     -0.137878
    100 C34         0.1320   -2.5570    5.3610 c3        1 MOL     -0.298440
    101 H42        -0.5600   -4.8070    1.4310 hn        1 MOL      0.316909
    102 H43         0.3860   -2.1180    1.3140 h1        1 MOL      0.200848
    103 H44         1.1460   -4.2670    3.2950 hc        1 MOL      0.025385
    104 H45        -1.0280   -3.3580    3.7830 hc        1 MOL      0.041630
    105 H46        -0.5220   -1.8060    3.3620 hc        1 MOL      0.041630
    106 H47         2.5280   -2.5220    4.4050 hc        1 MOL      0.046932
    107 H48         3.1030   -3.0630    2.7760 hc        1 MOL      0.046932
    108 H49         2.2330   -1.5360    2.9680 hc        1 MOL      0.046932
    109 H50         0.8940   -1.8200    5.6010 hc        1 MOL      0.077356
    110 H51        -0.7390   -2.3830    5.9960 hc        1 MOL      0.077356
    111 H52         0.5380   -3.5360    5.6350 hc        1 MOL      0.077356
    112 N10         2.3480   -2.7480   -0.1930 n         1 MOL     -0.197252
    113 C35         3.4750   -3.1060   -1.1320 c3        1 MOL     -0.152797
    114 C36         4.8590   -2.9960   -0.3790 c         1 MOL      0.507690
    115 O17         5.0400   -2.5220    0.7820 o         1 MOL     -0.446700
    116 C37         3.4760   -2.0650   -2.3480 c3        1 MOL      0.354384
    117 C38         2.3510   -2.2190   -3.3350 c3        1 MOL     -0.449100
    118 O18         3.4030   -0.8250   -1.7390 oh        1 MOL     -0.474316
    119 H53         2.0380   -1.7900   -0.0860 hn        1 MOL      0.097838
    120 H54         3.4390   -4.1100   -1.5590 h1        1 MOL      0.097844
    121 H55         4.4300   -2.2680   -2.8410 h1        1 MOL      0.051543
    122 H56         2.4840   -0.6780   -1.5190 ho        1 MOL      0.282795
    123 H57         2.8040   -1.8250   -4.2390 hc        1 MOL      0.126521
    124 H58         1.8970   -3.2080   -3.3890 hc        1 MOL      0.126521
    125 H59         1.5420   -1.5450   -3.0500 hc        1 MOL      0.126521
    126 N11         5.8480   -3.2630   -1.1400 n         1 MOL     -0.423040
    127 C39         7.2360   -2.7720   -0.8500 c3        1 MOL     -0.082722
    128 C40         7.4810   -1.2510   -0.8200 c         1 MOL      0.288895
    129 O19         8.2220   -0.7370    0.0760 o         1 MOL     -0.456717
    130 C41         8.1970   -3.2770   -1.8930 c3        1 MOL      0.321276
    131 C42         8.4570   -4.7360   -1.7070 c3        1 MOL     -0.437421
    132 O20         7.7850   -3.0400   -3.2440 oh        1 MOL     -0.619885
    133 H60         5.6360   -3.6700   -2.0460 hn        1 MOL      0.296431
    134 H61         7.4640   -3.1630    0.1430 h1        1 MOL      0.165562
    135 H62         9.1310   -2.7480   -1.7370 h1        1 MOL      0.049651
    136 H63         8.5350   -3.0940   -3.8410 ho        1 MOL      0.410760
    137 H64         8.8480   -4.8400   -0.6890 hc        1 MOL      0.124581
    138 H65         7.6170   -5.3600   -2.0120 hc        1 MOL      0.124581
    139 H66         9.1990   -5.0820   -2.4100 hc        1 MOL      0.124581
    140 N12         6.8670   -0.5200   -1.7480 n         1 MOL     -0.242504
    141 C43         6.7810    0.9520   -1.6880 c3        1 MOL      0.163668
    142 C44         6.1920    1.5110   -0.3670 c         1 MOL      0.228102
    143 O21         6.5390    2.5750    0.1020 o         1 MOL     -0.523198
    144 C45         6.0570    1.3760   -2.9530 c3        1 MOL     -0.194059
    145 C46         5.5360    2.8220   -2.9220 c3        1 MOL      0.233193
    146 C47         5.0110    3.2790   -4.3190 c3        1 MOL     -0.049202
    147 C48         4.1010    4.5540   -4.0940 c3        1 MOL      0.012854
    148 N13         3.1480    4.5550   -5.1900 n4        1 MOL     -0.194174
    149 H67         6.4910   -1.0030   -2.5530 hn        1 MOL      0.187525
    150 H68         7.7890    1.3580   -1.7790 h1        1 MOL      0.082332
    151 H69         5.2470    0.6900   -3.1880 hc        1 MOL      0.044656
    152 H70         6.8140    1.4170   -3.7370 hc        1 MOL      0.044656
    153 H71         6.3460    3.4600   -2.5760 hc        1 MOL     -0.020433
    154 H72         4.7050    2.9700   -2.2340 hc        1 MOL     -0.020433
    155 H73         4.3850    2.4700   -4.6880 hc        1 MOL      0.016761
    156 H74         5.7930    3.5750   -5.0170 hc        1 MOL      0.016761
    157 H75         4.8070    5.3960   -4.0820 hx        1 MOL      0.078120
    158 H76         3.5840    4.5230   -3.1430 hx        1 MOL      0.078120
    159 H77         2.5840    5.3800   -5.3360 hn        1 MOL      0.291459
    160 H78         3.6820    4.5100   -6.0560 hn        1 MOL      0.291459
    161 H79         2.5030    3.7860   -5.1230 hn        1 MOL      0.291459
    162 N14         5.1810    0.8540    0.1320 n         1 MOL      0.006461
    163 C49         4.4510    1.0960    1.4190 c3        1 MOL     -0.420060
    164 C50         5.2270    0.5830    2.6380 c         1 MOL      0.505045
    165 O22         4.8450    0.8940    3.8130 o         1 MOL     -0.576195
    166 C51         2.9360    0.7780    1.3420 c3        1 MOL      0.288166
    167 C52         2.2020    1.6240    0.3140 c3        1 MOL     -0.183562
    168 C53         0.8460    0.9830   -0.0450 c         1 MOL      0.681696
    169 O23         0.7640   -0.2250   -0.2890 o         1 MOL     -0.712366
    170 O24        -0.2230    1.6880   -0.0690 o         1 MOL     -0.712366
    171 H80         4.8170    0.0830   -0.4170 hn        1 MOL      0.034666
    172 H81         4.5550    2.1780    1.5200 h1        1 MOL      0.168505
    173 H82         2.4410    0.9710    2.2940 hc        1 MOL      0.011497
    174 H83         2.9250   -0.3010    1.1730 hc        1 MOL      0.011497
    175 H84         2.8060    1.7200   -0.5910 hc        1 MOL      0.037507
    176 H85         1.9420    2.6120    0.6910 hc        1 MOL      0.037507
    177 N15         6.2860   -0.2030    2.4590 n         1 MOL     -0.140962
    178 C54         6.9620   -0.8850    3.5600 c3        1 MOL     -0.254256
    179 H86         6.8180   -1.9610    3.4630 h1        1 MOL      0.105819
    180 H87         8.0280   -0.6570    3.5280 h1        1 MOL      0.105819
    181 H88         6.5450   -0.5460    4.5090 h1        1 MOL      0.105819
    182 H89         6.5780   -0.4720    1.5350 hn        1 MOL      0.227742
    183 Ca1        -1.7300   -0.1490   -1.3070 Ca        1 MOL      1.763228
    184 O25        -0.4070    0.4020   -3.6500 oh        1 MOL     -0.820639
    185 H90         0.1870    0.0390   -4.3060 ho        1 MOL      0.378280
    186 H91        -0.5830    1.2910   -3.9490 ho        1 MOL      0.378280
    187 O26        -0.9280   -2.3810   -2.3310 oh        1 MOL     -0.820639
    188 H92        -0.7470   -2.6270   -3.2400 ho        1 MOL      0.378280
    189 H93        -1.4870   -3.0780   -2.0000 ho        1 MOL      0.378280
@<TRIPOS>BOND
     1    1    2 1   
     2    1    4 1   
     3    1    5 1   
     4    1    6 1   
     5    2    3 2   
     6    2    7 1   
     7    7    8 1   
     8    7   15 1   
     9    8    9 1   
    10    8   11 1   
    11    8   16 1   
    12    9   10 2   
    13    9   19 1   
    14   11   12 1   
    15   11   17 1   
    16   11   18 1   
    17   12   13 1   
    18   12   14 1   
    19   19   20 1   
    20   19   28 1   
    21   20   21 1   
    22   20   23 1   
    23   20   29 1   
    24   21   22 2   
    25   21   41 1   
    26   23   24 1   
    27   23   30 1   
    28   23   31 1   
    29   24   25 1   
    30   24   32 1   
    31   24   33 1   
    32   25   26 1   
    33   25   34 1   
    34   25   35 1   
    35   26   27 1   
    36   26   36 1   
    37   26   37 1   
    38   27   38 1   
    39   27   39 1   
    40   27   40 1   
    41   41   42 1   
    42   41   49 1   
    43   42   43 1   
    44   42   45 1   
    45   42   50 1   
    46   43   44 2   
    47   43   53 1   
    48   45   46 1   
    49   45   51 1   
    50   45   52 1   
    51   46   47 1   
    52   46   48 1   
    53   53   54 1   
    54   53   57 1   
    55   54   55 1   
    56   54   58 1   
    57   54   59 1   
    58   55   56 2   
    59   55   60 1   
    60   60   61 1   
    61   60   68 1   
    62   61   62 1   
    63   61   64 1   
    64   61   69 1   
    65   62   63 2   
    66   62   72 1   
    67   64   65 1   
    68   64   70 1   
    69   64   71 1   
    70   65   66 1   
    71   65   67 1   
    72   72   73 1   
    73   72   76 1   
    74   73   74 1   
    75   73   77 1   
    76   73   78 1   
    77   74   75 2   
    78   74   79 1   
    79   79   80 1   
    80   79   86 1   
    81   80   81 1   
    82   80   83 1   
    83   80   87 1   
    84   81   82 2   
    85   81   93 1   
    86   83   84 1   
    87   83   85 1   
    88   83   88 1   
    89   84   90 1   
    90   84   91 1   
    91   84   92 1   
    92   85   89 1   
    93   93   94 1   
    94   93  101 1   
    95   94   95 1   
    96   94   97 1   
    97   94  102 1   
    98   95   96 2   
    99   95  112 1   
   100   97   98 1   
   101   97   99 1   
   102   97  103 1   
   103   98  100 1   
   104   98  104 1   
   105   98  105 1   
   106   99  106 1   
   107   99  107 1   
   108   99  108 1   
   109  100  109 1   
   110  100  110 1   
   111  100  111 1   
   112  112  113 1   
   113  112  119 1   
   114  113  114 1   
   115  113  116 1   
   116  113  120 1   
   117  114  115 2   
   118  114  126 1   
   119  116  117 1   
   120  116  118 1   
   121  116  121 1   
   122  117  123 1   
   123  117  124 1   
   124  117  125 1   
   125  118  122 1   
   126  126  127 1   
   127  126  133 1   
   128  127  128 1   
   129  127  130 1   
   130  127  134 1   
   131  128  129 2   
   132  128  140 1   
   133  130  131 1   
   134  130  132 1   
   135  130  135 1   
   136  131  137 1   
   137  131  138 1   
   138  131  139 1   
   139  132  136 1   
   140  140  141 1   
   141  140  149 1   
   142  141  142 1   
   143  141  144 1   
   144  141  150 1   
   145  142  143 2   
   146  142  162 1   
   147  144  145 1   
   148  144  151 1   
   149  144  152 1   
   150  145  146 1   
   151  145  153 1   
   152  145  154 1   
   153  146  147 1   
   154  146  155 1   
   155  146  156 1   
   156  147  148 1   
   157  147  157 1   
   158  147  158 1   
   159  148  159 1   
   160  148  160 1   
   161  148  161 1   
   162  162  163 1   
   163  162  171 1   
   164  163  164 1   
   165  163  166 1   
   166  163  172 1   
   167  164  165 2   
   168  164  177 1   
   169  166  167 1   
   170  166  173 1   
   171  166  174 1   
   172  167  168 1   
   173  167  175 1   
   174  167  176 1   
   175  168  169 1   
   176  168  170 1   
   177  177  178 1   
   178  177  182 1   
   179  178  179 1   
   180  178  180 1   
   181  178  181 1   
   182  184  185 1   
   183  184  186 1   
   184  187  188 1   
   185  187  189 1   
@<TRIPOS>SUBSTRUCTURE
     1 MOL         1 TEMP              0 ****  ****    0 ROOT
