@<TRIPOS>MOLECULE
MOL
  175   173     1     0     0
SMALL
resp


@<TRIPOS>ATOM
      1 C1         -0.2450    4.7450    5.7610 c3        1 MOL     -0.397369
      2 C2         -0.7350    4.6790    4.2810 c         1 MOL      0.703038
      3 O1          0.0090    5.0340    3.4020 o         1 MOL     -0.547648
      4 H1         -1.1070    4.7680    6.4290 hc        1 MOL      0.092922
      5 H2          0.3630    3.8680    5.9830 hc        1 MOL      0.092922
      6 H3          0.3510    5.6470    5.9080 hc        1 MOL      0.092922
      7 N1         -1.9410    4.0750    4.0450 n         1 MOL     -0.613448
      8 C3         -2.4400    3.6240    2.7770 c3        1 MOL      0.177540
      9 C4         -2.6390    4.7270    1.7010 c         1 MOL      0.586160
     10 O2         -3.4080    5.6950    1.8310 o         1 MOL     -0.586737
     11 C5         -3.7750    2.9090    3.0540 c3        1 MOL     -0.506720
     12 C6         -4.3510    2.2580    1.7420 c         1 MOL      0.859672
     13 O3         -5.5760    1.9150    1.8350 o         1 MOL     -0.679866
     14 O4         -3.6270    2.0100    0.7870 o         1 MOL     -0.679866
     15 H4         -2.4800    3.7340    4.8210 hn        1 MOL      0.320799
     16 H5         -1.7840    2.8280    2.4290 h1        1 MOL      0.058944
     17 H6         -4.4850    3.6270    3.4430 hc        1 MOL      0.110623
     18 H7         -3.6290    2.0960    3.7610 hc        1 MOL      0.110623
     19 N2         -1.9940    4.5380    0.5390 n         1 MOL     -0.445072
     20 C7         -1.9180    5.4780   -0.5860 c3        1 MOL      0.305770
     21 C8         -2.8950    5.0700   -1.7210 c         1 MOL      0.507183
     22 O5         -3.0230    5.8650   -2.6350 o         1 MOL     -0.589401
     23 C9         -0.4690    5.5400   -1.0470 c3        1 MOL     -0.195701
     24 H8         -1.5950    3.6110    0.4210 hn        1 MOL      0.166959
     25 H9         -2.2080    6.4730   -0.2630 h1        1 MOL      0.013553
     26 H10        -0.3770    6.2820   -1.8460 hc        1 MOL      0.044959
     27 H11         0.0740    5.8500   -0.1510 hc        1 MOL      0.044959
     28 H12        -0.0720    4.5600   -1.3230 hc        1 MOL      0.044959
     29 N3         -3.5970    3.9580   -1.6450 n         1 MOL     -0.586528
     30 C10        -4.3710    3.4290   -2.8160 c3        1 MOL      0.444194
     31 C11        -5.7030    2.8130   -2.5320 c         1 MOL      0.306925
     32 O6         -6.5350    2.8290   -3.3560 o         1 MOL     -0.555861
     33 C12        -3.6410    2.3490   -3.6180 c3        1 MOL     -0.403990
     34 C13        -3.1010    1.2800   -2.7460 c         1 MOL      0.878246
     35 O7         -1.8920    1.2200   -2.4540 o         1 MOL     -0.793734
     36 O8         -3.7750    0.5340   -2.0310 o         1 MOL     -0.793734
     37 H13        -3.4300    3.3870   -0.8340 hn        1 MOL      0.343804
     38 H14        -4.6240    4.2640   -3.4660 h1        1 MOL      0.018002
     39 H15        -2.7960    2.8110   -4.1220 hc        1 MOL      0.084642
     40 H16        -4.2670    1.8380   -4.3430 hc        1 MOL      0.084642
     41 N4         -5.9310    2.2910   -1.3520 n         1 MOL     -0.065954
     42 C14        -7.2340    1.8170   -1.0290 c3        1 MOL     -0.208252
     43 C15        -7.5730    0.2630   -1.1960 c         1 MOL      0.461481
     44 O9         -8.6890   -0.1340   -1.0030 o         1 MOL     -0.557821
     45 H17        -5.1950    2.2080   -0.6530 hn        1 MOL      0.005639
     46 H18        -8.0030    2.3040   -1.6300 h1        1 MOL      0.115890
     47 H19        -7.5160    2.1460   -0.0280 h1        1 MOL      0.115890
     48 N5         -6.5590   -0.4840   -1.6590 n         1 MOL     -0.326947
     49 C16        -6.5560   -1.8590   -2.1820 c3        1 MOL      0.076846
     50 C17        -6.7010   -2.9150   -1.1680 c         1 MOL      0.473748
     51 O10        -7.2230   -3.9790   -1.5680 o         1 MOL     -0.558529
     52 C18        -5.3860   -2.1330   -3.1000 c3        1 MOL     -0.211008
     53 C19        -3.9590   -2.3480   -2.5000 c         1 MOL      0.678845
     54 N6         -2.9850   -2.7180   -3.2530 n         1 MOL     -0.700799
     55 O11        -3.6830   -2.1690   -1.3610 o         1 MOL     -0.538600
     56 H20        -5.7640    0.0810   -1.9150 hn        1 MOL      0.334672
     57 H21        -7.4690   -1.9800   -2.7630 h1        1 MOL      0.076521
     58 H22        -5.3520   -1.2610   -3.7650 hc        1 MOL      0.051939
     59 H23        -5.6050   -3.0430   -3.6620 hc        1 MOL      0.051939
     60 H24        -3.1020   -2.7740   -4.2590 hn        1 MOL      0.336541
     61 H25        -2.0810   -2.8400   -2.8230 hn        1 MOL      0.336541
     62 N7         -6.2240   -2.6550    0.1010 n         1 MOL     -0.249160
     63 C20        -6.3710   -3.4870    1.3450 c3        1 MOL     -0.115969
     64 C21        -5.0580   -4.0290    1.9170 c         1 MOL      0.490205
     65 O12        -5.0540   -4.8450    2.8860 o         1 MOL     -0.567747
     66 H26        -5.7720   -1.7470    0.1480 hn        1 MOL      0.215996
     67 H27        -6.9610   -4.3250    0.9630 h1        1 MOL      0.094669
     68 H28        -6.9220   -2.9800    2.1280 h1        1 MOL      0.094669
     69 N8         -3.9120   -3.7760    1.1870 n         1 MOL     -0.120591
     70 C22        -2.6660   -4.5240    1.3530 c3        1 MOL     -0.357762
     71 C23        -1.4530   -3.5580    1.2620 c         1 MOL      0.618564
     72 O13        -1.4820   -2.6260    0.4380 o         1 MOL     -0.463336
     73 C24        -2.5900   -5.6960    0.3030 c3        1 MOL      0.635406
     74 C25        -3.6500   -6.8270    0.6200 c3        1 MOL     -0.471776
     75 O14        -2.8010   -5.1640   -1.0210 oh        1 MOL     -0.653175
     76 H29        -3.9570   -3.0540    0.4890 hn        1 MOL      0.076747
     77 H30        -2.5830   -4.9850    2.3290 h1        1 MOL      0.106713
     78 H31        -1.6250   -6.1850    0.4130 h1        1 MOL     -0.065562
     79 H32        -2.6460   -4.2150   -1.0100 ho        1 MOL      0.372981
     80 H33        -3.8500   -6.9340    1.6860 hc        1 MOL      0.115943
     81 H34        -4.6110   -6.6710    0.1350 hc        1 MOL      0.115943
     82 H35        -3.2670   -7.7660    0.2210 hc        1 MOL      0.115943
     83 N9         -0.3900   -3.8220    2.0000 n         1 MOL     -0.654213
     84 C26         0.9080   -3.1330    1.8320 c3        1 MOL      0.205597
     85 C27         1.5840   -3.4090    0.5450 c         1 MOL      0.420995
     86 O15         1.5730   -4.4950    0.0000 o         1 MOL     -0.550616
     87 C28         1.9080   -3.4300    3.0370 c3        1 MOL      0.134609
     88 C29         1.2150   -3.6910    4.3630 c3        1 MOL      0.035926
     89 C30         2.8620   -2.2340    3.2330 c3        1 MOL     -0.260224
     90 C31         2.1090   -4.1030    5.5220 c3        1 MOL     -0.094554
     91 H36        -0.4520   -4.6890    2.5160 hn        1 MOL      0.336105
     92 H37         0.7230   -2.0600    1.7680 h1        1 MOL      0.040041
     93 H38         2.4650   -4.3110    2.7040 hc        1 MOL     -0.016650
     94 H39         0.5400   -4.5180    4.1910 hc        1 MOL     -0.003289
     95 H40         0.6320   -2.7980    4.6200 hc        1 MOL     -0.003289
     96 H41         3.4190   -1.9660    2.3350 hc        1 MOL      0.058343
     97 H42         2.3810   -1.4060    3.7420 hc        1 MOL      0.058343
     98 H43         3.6820   -2.5570    3.8760 hc        1 MOL      0.058343
     99 H44         1.5480   -4.3430    6.4100 hc        1 MOL      0.016413
    100 H45         2.7150   -4.9750    5.2670 hc        1 MOL      0.016413
    101 H46         2.7940   -3.2950    5.7870 hc        1 MOL      0.016413
    102 N10         2.1190   -2.2990    0.0090 n         1 MOL     -0.079104
    103 C32         2.9230   -2.2190   -1.1710 c3        1 MOL      0.033023
    104 C33         4.3310   -1.6900   -0.8440 c         1 MOL      0.298406
    105 O16         4.5350   -1.1660    0.2380 o         1 MOL     -0.220406
    106 C34         2.2240   -1.2450   -2.1770 c3        1 MOL     -0.099250
    107 C35         0.7550   -1.5150   -2.6150 c         1 MOL      0.679676
    108 O17         0.6450   -1.9130   -3.8180 o         1 MOL     -0.681173
    109 O18        -0.2280   -1.2570   -1.8460 o         1 MOL     -0.681173
    110 H47         2.1080   -1.4890    0.5990 hn        1 MOL     -0.129447
    111 H48         2.9570   -3.1840   -1.6920 h1        1 MOL      0.067181
    112 H49         2.7960   -1.1400   -3.0970 hc        1 MOL      0.019275
    113 H50         2.1970   -0.2600   -1.7010 hc        1 MOL      0.019275
    114 N11         5.3040   -1.8720   -1.7070 n         1 MOL     -0.528638
    115 C36         6.6730   -1.3560   -1.3240 c3        1 MOL      0.362589
    116 C37         6.7470    0.1430   -0.9680 c         1 MOL      0.271056
    117 O19         7.2890    0.4420    0.0980 o         1 MOL     -0.475718
    118 C38         7.6920   -1.8520   -2.3540 c3        1 MOL     -0.271795
    119 C39         9.1820   -1.5860   -2.1140 ca        1 MOL      0.030495
    120 C40         9.7740   -0.4560   -2.6820 ca        1 MOL     -0.077728
    121 C41         9.8200   -2.3920   -1.1540 ca        1 MOL     -0.077728
    122 C42        11.1380   -0.1900   -2.4610 ca        1 MOL     -0.197658
    123 C43        11.1770   -2.0960   -0.7830 ca        1 MOL     -0.197658
    124 C44        11.8050   -0.9460   -1.4380 ca        1 MOL     -0.051625
    125 H51         5.1560   -2.4750   -2.5000 hn        1 MOL      0.316884
    126 H52         6.7960   -1.8610   -0.3610 h1        1 MOL      0.041418
    127 H53         7.4920   -1.3770   -3.3220 hc        1 MOL      0.077854
    128 H54         7.5440   -2.9230   -2.4500 hc        1 MOL      0.077854
    129 H55         9.2380    0.2010   -3.3460 ha        1 MOL      0.109825
    130 H56         9.2750   -3.2210   -0.7360 ha        1 MOL      0.109825
    131 H57        11.6870    0.6160   -2.9330 ha        1 MOL      0.138183
    132 H58        11.6710   -2.6800   -0.0220 ha        1 MOL      0.138183
    133 H59        12.8020   -0.6380   -1.1540 ha        1 MOL      0.093586
    134 N12         6.1100    1.1020   -1.7310 n         1 MOL     -0.015522
    135 C45         6.2380    2.5300   -1.3920 c3        1 MOL      0.013943
    136 C46         5.6010    2.8650   -0.0350 c         1 MOL      0.275503
    137 O20         5.8990    3.9790    0.4740 o         1 MOL     -0.520313
    138 C47         5.6560    3.2180   -2.6230 c3        1 MOL     -0.070040
    139 C48         5.6550    2.1710   -3.7650 c3        1 MOL      0.110068
    140 C49         5.5400    0.8760   -3.0310 c3        1 MOL     -0.149196
    141 H60         7.2900    2.8120   -1.3600 h1        1 MOL      0.083920
    142 H61         4.6800    3.6760   -2.4850 hc        1 MOL      0.037606
    143 H62         6.3570    4.0010   -2.9140 hc        1 MOL      0.037606
    144 H63         4.9190    2.2860   -4.5710 hc        1 MOL     -0.009633
    145 H64         6.6340    2.2440   -4.2440 hc        1 MOL     -0.009633
    146 H65         4.4630    0.7240   -2.9200 h1        1 MOL      0.067675
    147 H66         6.0110    0.0960   -3.6330 h1        1 MOL      0.067675
    148 N13         4.7050    2.0780    0.4930 n         1 MOL     -0.013360
    149 C50         4.1360    2.2070    1.8090 c3        1 MOL     -0.139091
    150 C51         5.0400    1.5240    2.8230 c         1 MOL      0.539762
    151 O21         5.2210    2.0190    3.8830 o         1 MOL     -0.570005
    152 C52         2.6990    1.6210    1.8540 c3        1 MOL     -0.142442
    153 C53         1.9220    1.8680    0.5400 c3        1 MOL     -0.002026
    154 C54         0.5970    1.2730    0.7790 c         1 MOL      0.499374
    155 O22        -0.4730    1.8320    0.3440 o         1 MOL     -0.598047
    156 O23         0.3630    0.0980    1.1700 o         1 MOL     -0.598047
    157 H67         4.5320    1.2260   -0.0220 hn        1 MOL      0.107862
    158 H68         4.1860    3.2660    2.0560 h1        1 MOL      0.111005
    159 H69         2.0990    1.8550    2.7340 hc        1 MOL      0.087958
    160 H70         2.8600    0.5410    1.9160 hc        1 MOL      0.087958
    161 H71         2.4100    1.3250   -0.2730 hc        1 MOL      0.055660
    162 H72         1.8000    2.8870    0.2020 hc        1 MOL      0.055660
    163 N14         5.6380    0.4080    2.4170 n         1 MOL      0.016364
    164 C55         6.5050   -0.2920    3.2850 c3        1 MOL     -0.298690
    165 H73         6.1280   -0.2270    4.3050 h1        1 MOL      0.091720
    166 H74         6.5550   -1.3380    2.9820 h1        1 MOL      0.091720
    167 H75         7.5020    0.1480    3.2370 h1        1 MOL      0.091720
    168 H76         5.4350    0.0500    1.4890 hn        1 MOL     -0.020402
    169 Ca1        -2.0640   -0.1100   -0.2180 Ca        1 MOL      1.723589
    170 O24        -1.8790   -0.1230    2.6930 oh        1 MOL     -0.836544
    171 H77        -1.9930    0.3650    3.5050 ho        1 MOL      0.397105
    172 H78        -0.9410   -0.1360    2.5480 ho        1 MOL      0.397105
    173 O25        -4.2730   -0.5490    1.0120 oh        1 MOL     -0.836544
    174 H79        -4.6400    0.3270    1.0250 ho        1 MOL      0.397105
    175 H80        -4.1770   -0.7850    1.9360 ho        1 MOL      0.397105
@<TRIPOS>BOND
     1    1    2 1   
     2    1    4 1   
     3    1    5 1   
     4    1    6 1   
     5    2    3 2   
     6    2    7 1   
     7    7    8 1   
     8    7   15 1   
     9    8    9 1   
    10    8   11 1   
    11    8   16 1   
    12    9   10 2   
    13    9   19 1   
    14   11   12 1   
    15   11   17 1   
    16   11   18 1   
    17   12   13 1   
    18   12   14 1   
    19   19   20 1   
    20   19   24 1   
    21   20   21 1   
    22   20   23 1   
    23   20   25 1   
    24   21   22 2   
    25   21   29 1   
    26   23   26 1   
    27   23   27 1   
    28   23   28 1   
    29   29   30 1   
    30   29   37 1   
    31   30   31 1   
    32   30   33 1   
    33   30   38 1   
    34   31   32 2   
    35   31   41 1   
    36   33   34 1   
    37   33   39 1   
    38   33   40 1   
    39   34   35 1   
    40   34   36 1   
    41   41   42 1   
    42   41   45 1   
    43   42   43 1   
    44   42   46 1   
    45   42   47 1   
    46   43   44 2   
    47   43   48 1   
    48   48   49 1   
    49   48   56 1   
    50   49   50 1   
    51   49   52 1   
    52   49   57 1   
    53   50   51 2   
    54   50   62 1   
    55   52   53 1   
    56   52   58 1   
    57   52   59 1   
    58   53   54 1   
    59   53   55 2   
    60   54   60 1   
    61   54   61 1   
    62   62   63 1   
    63   62   66 1   
    64   63   64 1   
    65   63   67 1   
    66   63   68 1   
    67   64   65 2   
    68   64   69 1   
    69   69   70 1   
    70   69   76 1   
    71   70   71 1   
    72   70   73 1   
    73   70   77 1   
    74   71   72 2   
    75   71   83 1   
    76   73   74 1   
    77   73   75 1   
    78   73   78 1   
    79   74   80 1   
    80   74   81 1   
    81   74   82 1   
    82   75   79 1   
    83   83   84 1   
    84   83   91 1   
    85   84   85 1   
    86   84   87 1   
    87   84   92 1   
    88   85   86 2   
    89   85  102 1   
    90   87   88 1   
    91   87   89 1   
    92   87   93 1   
    93   88   90 1   
    94   88   94 1   
    95   88   95 1   
    96   89   96 1   
    97   89   97 1   
    98   89   98 1   
    99   90   99 1   
   100   90  100 1   
   101   90  101 1   
   102  102  103 1   
   103  102  110 1   
   104  103  104 1   
   105  103  106 1   
   106  103  111 1   
   107  104  105 2   
   108  104  114 1   
   109  106  107 1   
   110  106  112 1   
   111  106  113 1   
   112  107  108 1   
   113  107  109 1   
   114  114  115 1   
   115  114  125 1   
   116  115  116 1   
   117  115  118 1   
   118  115  126 1   
   119  116  117 2   
   120  116  134 1   
   121  118  119 1   
   122  118  127 1   
   123  118  128 1   
   124  119  120 ar  
   125  119  121 ar  
   126  120  122 ar  
   127  120  129 1   
   128  121  123 ar  
   129  121  130 1   
   130  122  124 ar  
   131  122  131 1   
   132  123  124 ar  
   133  123  132 1   
   134  124  133 1   
   135  134  135 1   
   136  134  140 1   
   137  135  136 1   
   138  135  138 1   
   139  135  141 1   
   140  136  137 2   
   141  136  148 1   
   142  138  139 1   
   143  138  142 1   
   144  138  143 1   
   145  139  140 1   
   146  139  144 1   
   147  139  145 1   
   148  140  146 1   
   149  140  147 1   
   150  148  149 1   
   151  148  157 1   
   152  149  150 1   
   153  149  152 1   
   154  149  158 1   
   155  150  151 2   
   156  150  163 1   
   157  152  153 1   
   158  152  159 1   
   159  152  160 1   
   160  153  154 1   
   161  153  161 1   
   162  153  162 1   
   163  154  155 1   
   164  154  156 1   
   165  163  164 1   
   166  163  168 1   
   167  164  165 1   
   168  164  166 1   
   169  164  167 1   
   170  170  171 1   
   171  170  172 1   
   172  173  174 1   
   173  173  175 1   
@<TRIPOS>SUBSTRUCTURE
     1 MOL         1 TEMP              0 ****  ****    0 ROOT
