@<TRIPOS>MOLECULE
MOL
  175   173     1     0     0
SMALL
resp


@<TRIPOS>ATOM
      1 C1          0.0940    4.3660    5.5310 c3        1 MOL     -0.406221
      2 C2         -0.3220    4.4430    4.0920 c         1 MOL      0.680393
      3 O1          0.5050    4.6450    3.1550 o         1 MOL     -0.551486
      4 H1          0.0660    5.3630    5.9700 hc        1 MOL      0.099109
      5 H2         -0.5890    3.7120    6.0730 hc        1 MOL      0.099109
      6 H3          1.1070    3.9690    5.5970 hc        1 MOL      0.099109
      7 N1         -1.6240    4.1740    3.8730 n         1 MOL     -0.557071
      8 C3         -2.2240    3.8250    2.5380 c3        1 MOL      0.044024
      9 C4         -2.3040    4.9540    1.4620 c         1 MOL      0.570422
     10 O2         -2.4550    6.1300    1.7460 o         1 MOL     -0.565361
     11 C5         -3.6650    3.3730    2.8140 c3        1 MOL     -0.386470
     12 C6         -4.2940    2.9870    1.4860 c         1 MOL      0.732929
     13 O3         -5.4000    3.4970    1.2000 o         1 MOL     -0.639820
     14 O4         -3.6590    2.1860    0.7580 o         1 MOL     -0.639820
     15 H4         -2.2600    4.1750    4.6640 hn        1 MOL      0.316633
     16 H5         -1.6160    2.9990    2.1800 h1        1 MOL      0.101980
     17 H6         -4.2460    4.2390    3.1480 hc        1 MOL      0.085890
     18 H7         -3.8200    2.6080    3.5730 hc        1 MOL      0.085890
     19 N2         -2.0730    4.4980    0.2260 n         1 MOL     -0.403217
     20 C7         -2.0460    5.2530   -0.9850 c3        1 MOL      0.391825
     21 C8         -3.1360    4.9650   -1.9560 c         1 MOL      0.337165
     22 O5         -3.1660    5.6510   -2.9640 o         1 MOL     -0.565893
     23 C9         -0.6600    4.9920   -1.5780 c3        1 MOL     -0.310766
     24 H8         -1.8380    3.5160    0.2120 hn        1 MOL      0.239493
     25 H9         -2.1000    6.3240   -0.7730 h1        1 MOL     -0.026519
     26 H10         0.0780    5.1680   -0.7950 hc        1 MOL      0.081185
     27 H11        -0.5980    3.9190   -1.7500 hc        1 MOL      0.081185
     28 H12        -0.4080    5.4930   -2.5140 hc        1 MOL      0.081185
     29 N3         -3.8620    3.8400   -1.8550 n         1 MOL     -0.221487
     30 C10        -4.6850    3.2940   -2.8920 c3        1 MOL      0.156827
     31 C11        -5.8700    2.4010   -2.4590 c         1 MOL      0.367429
     32 O6         -6.6890    2.2000   -3.3110 o         1 MOL     -0.544647
     33 C12        -3.7810    2.4340   -3.8110 c3        1 MOL     -0.190077
     34 C13        -2.9700    1.2630   -3.2760 c         1 MOL      0.873322
     35 O7         -2.1070    0.7690   -3.9660 o         1 MOL     -0.731570
     36 O8         -3.1260    0.9030   -2.0940 o         1 MOL     -0.731570
     37 H13        -3.7550    3.2860   -1.0160 hn        1 MOL      0.053467
     38 H14        -5.1280    4.1060   -3.4810 h1        1 MOL      0.057421
     39 H15        -3.1380    3.0870   -4.4110 hc        1 MOL      0.008167
     40 H16        -4.5030    1.9050   -4.4260 hc        1 MOL      0.008167
     41 N4         -6.0100    1.9760   -1.1740 n         1 MOL     -0.038837
     42 C14        -7.2670    1.2950   -0.8090 c3        1 MOL     -0.363832
     43 C15        -7.1710   -0.2330   -0.9490 c         1 MOL      0.615655
     44 O9         -8.1050   -0.8750   -0.5220 o         1 MOL     -0.629730
     45 H17        -5.3380    2.2640   -0.4680 hn        1 MOL      0.056929
     46 H18        -8.0090    1.6670   -1.5120 h1        1 MOL      0.148634
     47 H19        -7.4460    1.5870    0.2280 h1        1 MOL      0.148634
     48 N5         -6.0970   -0.7480   -1.5790 n         1 MOL     -0.343090
     49 C16        -6.0550   -2.1280   -2.1510 c3        1 MOL      0.032430
     50 C17        -6.1020   -3.3480   -1.1310 c         1 MOL      0.416795
     51 O10        -6.0030   -4.5060   -1.6320 o         1 MOL     -0.510747
     52 C18        -4.8610   -2.3570   -3.1410 c3        1 MOL     -0.121026
     53 C19        -3.5000   -2.3370   -2.4990 c         1 MOL      0.595874
     54 N6         -2.4920   -2.7110   -3.2010 n         1 MOL     -0.527303
     55 O11        -3.3320   -1.8260   -1.4360 o         1 MOL     -0.682134
     56 H20        -5.4330   -0.0420   -1.8810 hn        1 MOL      0.255040
     57 H21        -7.0070   -2.1830   -2.6710 h1        1 MOL      0.088162
     58 H22        -4.9310   -1.5890   -3.9030 hc        1 MOL      0.038108
     59 H23        -5.0370   -3.2820   -3.6990 hc        1 MOL      0.038108
     60 H24        -2.6700   -3.0280   -4.1520 hn        1 MOL      0.288220
     61 H25        -1.5610   -2.6840   -2.8220 hn        1 MOL      0.288220
     62 N7         -6.3280   -3.1920    0.1890 n         1 MOL     -0.238319
     63 C20        -6.3470   -4.3250    1.1310 c3        1 MOL     -0.268656
     64 C21        -5.0330   -4.8360    1.7600 c         1 MOL      0.516326
     65 O12        -5.0000   -5.5720    2.7630 o         1 MOL     -0.594970
     66 H26        -6.4460   -2.2620    0.5380 hn        1 MOL      0.265863
     67 H27        -6.8740   -5.1520    0.6550 h1        1 MOL      0.130082
     68 H28        -6.9190   -3.9660    1.9920 h1        1 MOL      0.130082
     69 N8         -3.8880   -4.4490    1.2300 n         1 MOL     -0.197498
     70 C22        -2.5240   -4.7690    1.5570 c3        1 MOL     -0.046849
     71 C23        -1.6420   -3.5290    1.7400 c         1 MOL      0.305182
     72 O13        -1.9600   -2.5000    1.1610 o         1 MOL     -0.348567
     73 C24        -1.9410   -5.5120    0.3840 c3        1 MOL      0.619787
     74 C25        -2.5220   -6.8710    0.2920 c3        1 MOL     -0.503152
     75 O14        -2.2280   -4.8310   -0.7920 oh        1 MOL     -0.619281
     76 H29        -4.0270   -3.7650    0.4980 hn        1 MOL      0.162209
     77 H30        -2.5110   -5.3440    2.4830 h1        1 MOL      0.067632
     78 H31        -0.8680   -5.5500    0.5940 h1        1 MOL     -0.092237
     79 H32        -1.7080   -4.0170   -0.7790 ho        1 MOL      0.354136
     80 H33        -3.5720   -6.9460   -0.0040 hc        1 MOL      0.117814
     81 H34        -1.9440   -7.4110   -0.4650 hc        1 MOL      0.117814
     82 H35        -2.4350   -7.3770    1.2550 hc        1 MOL      0.117814
     83 N9         -0.5200   -3.6930    2.4110 n         1 MOL     -0.411770
     84 C26         0.5740   -2.7650    2.3130 c3        1 MOL      0.225919
     85 C27         1.4120   -3.0790    1.0420 c         1 MOL      0.410868
     86 O15         1.5740   -4.2400    0.6470 o         1 MOL     -0.563561
     87 C28         1.4530   -2.7230    3.5410 c3        1 MOL      0.060630
     88 C29         0.8370   -1.8080    4.6230 c3        1 MOL     -0.143718
     89 C30         2.8810   -2.2520    3.3470 c3        1 MOL     -0.085193
     90 C31         1.2640   -2.2630    5.9700 c3        1 MOL     -0.124630
     91 H36        -0.3590   -4.6540    2.6560 hn        1 MOL      0.246641
     92 H37         0.1610   -1.7820    2.0830 h1        1 MOL     -0.073999
     93 H38         1.5690   -3.7660    3.8440 hc        1 MOL      0.013243
     94 H39        -0.2430   -1.7590    4.4690 hc        1 MOL      0.053283
     95 H40         1.2710   -0.7990    4.5480 hc        1 MOL      0.053283
     96 H41         3.4080   -2.9580    2.7080 hc        1 MOL      0.004395
     97 H42         2.9600   -1.2790    2.8580 hc        1 MOL      0.004395
     98 H43         3.4480   -2.2570    4.2730 hc        1 MOL      0.004395
     99 H44         0.7130   -1.8650    6.8130 hc        1 MOL      0.034874
    100 H45         1.2390   -3.3480    6.0520 hc        1 MOL      0.034874
    101 H46         2.2950   -1.9150    6.0350 hc        1 MOL      0.034874
    102 N10         1.9710   -2.0550    0.4140 n         1 MOL     -0.143937
    103 C32         2.7350   -2.0060   -0.8580 c3        1 MOL      0.083194
    104 C33         4.2000   -1.5130   -0.7070 c         1 MOL      0.430959
    105 O16         4.5360   -0.8470    0.2680 o         1 MOL     -0.389104
    106 C34         1.9900   -1.1650   -1.8350 c3        1 MOL     -0.467858
    107 C35         0.4740   -1.5170   -1.9930 c         1 MOL      0.843227
    108 O17         0.1710   -2.3710   -2.8330 o         1 MOL     -0.679030
    109 O18        -0.3830   -0.9900   -1.2910 o         1 MOL     -0.679030
    110 H47         1.4960   -1.1870    0.6090 hn        1 MOL      0.225620
    111 H48         2.8290   -3.0230   -1.2340 h1        1 MOL      0.037045
    112 H49         2.4680   -1.2230   -2.8070 hc        1 MOL      0.127419
    113 H50         2.1210   -0.1470   -1.4720 hc        1 MOL      0.127419
    114 N11         5.1100   -1.8420   -1.6440 n         1 MOL     -0.520701
    115 C36         6.5260   -1.4740   -1.3670 c3        1 MOL      0.132357
    116 C37         6.6820    0.0900   -1.1700 c         1 MOL      0.363728
    117 O19         7.2410    0.4860   -0.1600 o         1 MOL     -0.515388
    118 C38         7.4900   -1.9710   -2.5160 c3        1 MOL     -0.258139
    119 C39         8.9030   -1.8080   -2.2290 ca        1 MOL      0.279869
    120 C40         9.8390   -1.0500   -3.0110 ca        1 MOL     -0.285774
    121 C41         9.3330   -2.5730   -1.1310 ca        1 MOL     -0.285774
    122 C42        11.1470   -1.0120   -2.5860 ca        1 MOL     -0.012810
    123 C43        10.7140   -2.5820   -0.7050 ca        1 MOL     -0.012810
    124 C44        11.6020   -1.7800   -1.4440 ca        1 MOL     -0.244126
    125 H51         4.9330   -2.4540   -2.4200 hn        1 MOL      0.344882
    126 H52         6.8260   -1.8540   -0.3960 h1        1 MOL      0.108416
    127 H53         7.3290   -1.3750   -3.4130 hc        1 MOL      0.078065
    128 H54         7.3060   -2.9960   -2.8340 hc        1 MOL      0.078065
    129 H55         9.5780   -0.5200   -3.9130 ha        1 MOL      0.142670
    130 H56         8.5990   -3.0870   -0.5220 ha        1 MOL      0.142670
    131 H57        11.8680   -0.4160   -3.1350 ha        1 MOL      0.098793
    132 H58        11.0340   -3.1160    0.1730 ha        1 MOL      0.098793
    133 H59        12.6110   -1.6450   -1.0790 ha        1 MOL      0.130942
    134 N12         6.0250    1.0270   -1.9340 n         1 MOL     -0.057803
    135 C45         5.9550    2.4590   -1.7150 c3        1 MOL     -0.018635
    136 C46         5.2430    2.9140   -0.4130 c         1 MOL      0.339398
    137 O20         5.2830    4.0740   -0.0900 o         1 MOL     -0.520428
    138 C47         5.2790    3.0430   -2.9000 c3        1 MOL     -0.096675
    139 C48         4.4640    1.8910   -3.4900 c3        1 MOL     -0.004362
    140 C49         5.4120    0.8070   -3.2640 c3        1 MOL      0.041239
    141 H60         6.9720    2.8400   -1.7730 h1        1 MOL      0.080527
    142 H61         4.5800    3.8150   -2.5810 hc        1 MOL      0.049857
    143 H62         6.0560    3.4620   -3.5500 hc        1 MOL      0.049857
    144 H63         3.5490    1.6300   -2.9490 hc        1 MOL      0.038692
    145 H64         4.2760    2.1090   -4.5410 hc        1 MOL      0.038692
    146 H65         4.8750   -0.1370   -3.3790 h1        1 MOL     -0.008259
    147 H66         6.1640    0.9030   -4.0570 h1        1 MOL     -0.008259
    148 N13         4.6390    2.0400    0.4040 n         1 MOL      0.023605
    149 C50         4.1750    2.3430    1.7290 c3        1 MOL     -0.154588
    150 C51         5.0220    1.6680    2.7910 c         1 MOL      0.472141
    151 O21         5.1690    2.1580    3.8880 o         1 MOL     -0.574425
    152 C52         2.6990    1.8330    1.7650 c3        1 MOL      0.049189
    153 C53         1.7480    2.3860    0.7160 c3        1 MOL     -0.053194
    154 C54         0.4340    1.5770    0.6330 c         1 MOL      0.596488
    155 O22        -0.4520    2.0090   -0.1210 o         1 MOL     -0.712329
    156 O23         0.3100    0.4190    1.0880 o         1 MOL     -0.712329
    157 H67         4.6460    1.0750    0.1060 hn        1 MOL      0.044476
    158 H68         4.1520    3.4190    1.8390 h1        1 MOL      0.113898
    159 H69         2.3040    2.0510    2.7520 hc        1 MOL      0.012500
    160 H70         2.8200    0.7510    1.6630 hc        1 MOL      0.012500
    161 H71         2.2290    2.3070   -0.2550 hc        1 MOL      0.044631
    162 H72         1.5470    3.4300    0.9530 hc        1 MOL      0.044631
    163 N14         5.5760    0.5030    2.5500 n         1 MOL     -0.074054
    164 C55         6.6570   -0.1200    3.3830 c3        1 MOL     -0.196473
    165 H73         6.7230    0.3990    4.3390 h1        1 MOL      0.082347
    166 H74         6.4240   -1.1700    3.5560 h1        1 MOL      0.082347
    167 H75         7.6110   -0.0390    2.8610 h1        1 MOL      0.082347
    168 H76         5.5530    0.2250    1.5880 hn        1 MOL      0.101508
    169 Ca1        -2.1710    0.0080    0.0490 Ca        1 MOL      1.693907
    170 O24        -1.7900    0.4700    2.7360 oh        1 MOL     -0.770107
    171 H77        -1.9910    0.7480    3.6350 ho        1 MOL      0.377286
    172 H78        -0.8390    0.5680    2.6660 ho        1 MOL      0.377286
    173 O25        -4.3740   -0.6550    1.4320 oh        1 MOL     -0.770107
    174 H79        -5.2820   -0.3750    1.3460 ho        1 MOL      0.377286
    175 H80        -4.3160   -1.0290    2.3190 ho        1 MOL      0.377286
@<TRIPOS>BOND
     1    1    2 1   
     2    1    4 1   
     3    1    5 1   
     4    1    6 1   
     5    2    3 2   
     6    2    7 1   
     7    7    8 1   
     8    7   15 1   
     9    8    9 1   
    10    8   11 1   
    11    8   16 1   
    12    9   10 2   
    13    9   19 1   
    14   11   12 1   
    15   11   17 1   
    16   11   18 1   
    17   12   13 1   
    18   12   14 1   
    19   19   20 1   
    20   19   24 1   
    21   20   21 1   
    22   20   23 1   
    23   20   25 1   
    24   21   22 2   
    25   21   29 1   
    26   23   26 1   
    27   23   27 1   
    28   23   28 1   
    29   29   30 1   
    30   29   37 1   
    31   30   31 1   
    32   30   33 1   
    33   30   38 1   
    34   31   32 2   
    35   31   41 1   
    36   33   34 1   
    37   33   39 1   
    38   33   40 1   
    39   34   35 1   
    40   34   36 1   
    41   41   42 1   
    42   41   45 1   
    43   42   43 1   
    44   42   46 1   
    45   42   47 1   
    46   43   44 2   
    47   43   48 1   
    48   48   49 1   
    49   48   56 1   
    50   49   50 1   
    51   49   52 1   
    52   49   57 1   
    53   50   51 2   
    54   50   62 1   
    55   52   53 1   
    56   52   58 1   
    57   52   59 1   
    58   53   54 1   
    59   53   55 2   
    60   54   60 1   
    61   54   61 1   
    62   62   63 1   
    63   62   66 1   
    64   63   64 1   
    65   63   67 1   
    66   63   68 1   
    67   64   65 2   
    68   64   69 1   
    69   69   70 1   
    70   69   76 1   
    71   70   71 1   
    72   70   73 1   
    73   70   77 1   
    74   71   72 2   
    75   71   83 1   
    76   73   74 1   
    77   73   75 1   
    78   73   78 1   
    79   74   80 1   
    80   74   81 1   
    81   74   82 1   
    82   75   79 1   
    83   83   84 1   
    84   83   91 1   
    85   84   85 1   
    86   84   87 1   
    87   84   92 1   
    88   85   86 2   
    89   85  102 1   
    90   87   88 1   
    91   87   89 1   
    92   87   93 1   
    93   88   90 1   
    94   88   94 1   
    95   88   95 1   
    96   89   96 1   
    97   89   97 1   
    98   89   98 1   
    99   90   99 1   
   100   90  100 1   
   101   90  101 1   
   102  102  103 1   
   103  102  110 1   
   104  103  104 1   
   105  103  106 1   
   106  103  111 1   
   107  104  105 2   
   108  104  114 1   
   109  106  107 1   
   110  106  112 1   
   111  106  113 1   
   112  107  108 1   
   113  107  109 1   
   114  114  115 1   
   115  114  125 1   
   116  115  116 1   
   117  115  118 1   
   118  115  126 1   
   119  116  117 2   
   120  116  134 1   
   121  118  119 1   
   122  118  127 1   
   123  118  128 1   
   124  119  120 ar  
   125  119  121 ar  
   126  120  122 ar  
   127  120  129 1   
   128  121  123 ar  
   129  121  130 1   
   130  122  124 ar  
   131  122  131 1   
   132  123  124 ar  
   133  123  132 1   
   134  124  133 1   
   135  134  135 1   
   136  134  140 1   
   137  135  136 1   
   138  135  138 1   
   139  135  141 1   
   140  136  137 2   
   141  136  148 1   
   142  138  139 1   
   143  138  142 1   
   144  138  143 1   
   145  139  140 1   
   146  139  144 1   
   147  139  145 1   
   148  140  146 1   
   149  140  147 1   
   150  148  149 1   
   151  148  157 1   
   152  149  150 1   
   153  149  152 1   
   154  149  158 1   
   155  150  151 2   
   156  150  163 1   
   157  152  153 1   
   158  152  159 1   
   159  152  160 1   
   160  153  154 1   
   161  153  161 1   
   162  153  162 1   
   163  154  155 1   
   164  154  156 1   
   165  163  164 1   
   166  163  168 1   
   167  164  165 1   
   168  164  166 1   
   169  164  167 1   
   170  170  171 1   
   171  170  172 1   
   172  173  174 1   
   173  173  175 1   
@<TRIPOS>SUBSTRUCTURE
     1 MOL         1 TEMP              0 ****  ****    0 ROOT
