@<TRIPOS>MOLECULE
MOL
  189   185     1     0     0
SMALL
resp


@<TRIPOS>ATOM
      1 C1         -0.5780    2.8210   -5.0680 c3        1 MOL     -0.366235
      2 C2         -0.0060    2.6680   -3.6310 c         1 MOL      0.731469
      3 O1         -0.6920    3.1540   -2.6980 o         1 MOL     -0.686938
      4 H1         -1.1220    3.7640   -5.1440 hc        1 MOL      0.089062
      5 H2          0.2390    2.8150   -5.7890 hc        1 MOL      0.089062
      6 H3         -1.2560    1.9940   -5.2800 hc        1 MOL      0.089062
      7 N1          1.1570    2.1070   -3.5100 n         1 MOL     -0.553178
      8 C3          1.9610    1.7670   -2.2920 c3        1 MOL      0.284875
      9 C4          2.5710    3.0590   -1.7600 c         1 MOL      0.220898
     10 O2          3.7340    3.4140   -2.1580 o         1 MOL     -0.509084
     11 C5          3.0250    0.6770   -2.5850 c3        1 MOL     -0.141386
     12 C6          3.8410    0.4460   -1.3120 c         1 MOL      0.688813
     13 O3          3.4560    0.8150   -0.1660 o         1 MOL     -0.679375
     14 O4          4.9950   -0.0710   -1.4220 o         1 MOL     -0.679375
     15 H4          1.5590    1.8290   -4.3940 hn        1 MOL      0.304556
     16 H5          1.2910    1.2830   -1.5810 h1        1 MOL     -0.039714
     17 H6          3.6600    0.9510   -3.4270 hc        1 MOL      0.046237
     18 H7          2.6460   -0.2990   -2.8920 hc        1 MOL      0.046237
     19 N2          1.8910    3.7720   -0.8540 n         1 MOL     -0.023343
     20 C7          2.2400    5.0750   -0.2650 c3        1 MOL      0.092143
     21 C8          3.3010    4.9310    0.7770 c         1 MOL      0.519793
     22 O5          3.7350    5.9660    1.2680 o         1 MOL     -0.575053
     23 C9          1.0580    6.0100   -0.0260 c3        1 MOL     -0.007738
     24 C10         0.0530    6.2420   -1.1270 c3        1 MOL      0.101500
     25 C11         0.8460    6.8520   -2.3410 c3        1 MOL     -0.100374
     26 C12        -0.0490    7.7880   -3.0690 c3        1 MOL     -0.014717
     27 N3         -1.2770    7.1480   -3.5470 n4        1 MOL     -0.269187
     28 H8          0.9930    3.4620   -0.4960 hn        1 MOL      0.189923
     29 H9          2.7730    5.6070   -1.0570 h1        1 MOL     -0.006526
     30 H10         1.4700    6.9710    0.2710 hc        1 MOL      0.004143
     31 H11         0.4690    5.5820    0.7880 hc        1 MOL      0.004143
     32 H12        -0.7260    6.9240   -0.8050 hc        1 MOL     -0.001015
     33 H13        -0.4030    5.2870   -1.3980 hc        1 MOL     -0.001015
     34 H14         1.1390    5.9600   -2.8860 hc        1 MOL      0.071471
     35 H15         1.6710    7.5420   -2.1230 hc        1 MOL      0.071471
     36 H16         0.4470    8.1730   -3.9630 hx        1 MOL      0.083340
     37 H17        -0.2960    8.6520   -2.4400 hx        1 MOL      0.083340
     38 H18        -1.9540    7.8590   -3.8110 hn        1 MOL      0.301066
     39 H19        -1.0690    6.5790   -4.3580 hn        1 MOL      0.301066
     40 H20        -1.8030    6.6210   -2.8680 hn        1 MOL      0.301066
     41 N4          3.6890    3.7710    1.2950 n         1 MOL     -0.442309
     42 C13         4.7430    3.5810    2.3220 c3        1 MOL      0.157311
     43 C14         5.8150    2.5660    2.0740 c         1 MOL      0.479027
     44 O6          6.4130    2.0160    3.0070 o         1 MOL     -0.518497
     45 C15         4.0360    3.3770    3.6800 c3        1 MOL     -0.337609
     46 C16         3.1230    2.1830    3.8260 c         1 MOL      0.920011
     47 O7          2.2770    2.1300    4.7220 o         1 MOL     -0.712046
     48 O8          3.0850    1.2850    2.9740 o         1 MOL     -0.712046
     49 H21         3.1710    2.9770    0.9780 hn        1 MOL      0.179497
     50 H22         5.3610    4.4850    2.3180 h1        1 MOL      0.085033
     51 H23         3.5300    4.3020    3.9700 hc        1 MOL      0.073248
     52 H24         4.8080    3.3240    4.4400 hc        1 MOL      0.073248
     53 N5          5.9170    2.0500    0.8080 n         1 MOL     -0.375211
     54 C17         7.1750    1.4450    0.2880 c3        1 MOL     -0.441994
     55 C18         7.5330    0.0500    0.7010 c         1 MOL      0.645466
     56 O9          8.6370   -0.3970    0.2990 o         1 MOL     -0.607387
     57 H25         5.1450    2.1610    0.1500 hn        1 MOL      0.327004
     58 H26         7.9470    2.1010    0.6990 h1        1 MOL      0.187635
     59 H27         7.1810    1.4620   -0.8030 h1        1 MOL      0.187635
     60 N6          6.6740   -0.6710    1.4600 n         1 MOL     -0.360329
     61 C19         6.8420   -2.1120    1.7760 c3        1 MOL     -0.040454
     62 C20         6.6610   -2.9900    0.5270 c         1 MOL      0.415096
     63 O10         6.8410   -4.1750    0.5940 o         1 MOL     -0.530897
     64 C21         5.8810   -2.5370    2.8380 c3        1 MOL     -0.156890
     65 C22         4.4250   -2.1690    2.4660 c         1 MOL      0.630231
     66 O11         3.9260   -2.3250    1.3070 o         1 MOL     -0.668159
     67 O12         3.7240   -1.5530    3.2870 o         1 MOL     -0.668159
     68 H28         5.8980   -0.1820    1.8830 hn        1 MOL      0.319211
     69 H29         7.8610   -2.1810    2.1480 h1        1 MOL      0.109449
     70 H30         6.2080   -2.1290    3.7910 hc        1 MOL      0.063951
     71 H31         5.8970   -3.6350    2.8950 hc        1 MOL      0.063951
     72 N7          6.3600   -2.4450   -0.6670 n         1 MOL     -0.120940
     73 C23         6.3160   -3.1660   -1.9320 c3        1 MOL     -0.102853
     74 C24         5.1010   -4.1120   -1.9710 c         1 MOL      0.481480
     75 O13         5.1210   -5.1250   -2.6790 o         1 MOL     -0.603464
     76 H32         6.0220   -1.4930   -0.6800 hn        1 MOL      0.219867
     77 H33         7.2890   -3.5780   -2.1750 h1        1 MOL      0.071454
     78 H34         6.1410   -2.3770   -2.6640 h1        1 MOL      0.071454
     79 N8          4.1240   -3.8930   -1.2150 n         1 MOL      0.031002
     80 C25         2.7880   -4.4760   -1.2610 c3        1 MOL     -0.320625
     81 C26         1.6890   -3.3630   -1.2720 c         1 MOL      0.697011
     82 O14         1.8450   -2.2210   -0.7820 o         1 MOL     -0.687006
     83 C27         2.6170   -5.4650   -0.1250 c3        1 MOL      0.471269
     84 C28         3.6460   -6.5950   -0.0460 c3        1 MOL     -0.512288
     85 O15         2.5000   -4.7050    1.0420 oh        1 MOL     -0.625783
     86 H35         4.3030   -3.2160   -0.4910 hn        1 MOL      0.038876
     87 H36         2.6460   -4.9550   -2.2270 h1        1 MOL      0.088668
     88 H37         1.6550   -5.9550   -0.2740 h1        1 MOL     -0.006347
     89 H38         3.1770   -4.0220    1.0340 ho        1 MOL      0.434292
     90 H39         4.0120   -6.9080   -1.0200 hc        1 MOL      0.135062
     91 H40         4.5710   -6.3460    0.4900 hc        1 MOL      0.135062
     92 H41         3.1620   -7.4150    0.4900 hc        1 MOL      0.135062
     93 N9          0.5120   -3.6780   -1.8560 n         1 MOL     -0.630221
     94 C29        -0.6120   -2.6490   -2.0760 c3        1 MOL     -0.020446
     95 C30        -1.9060   -3.2020   -1.3460 c         1 MOL      0.516371
     96 O16        -2.5220   -4.2170   -1.6810 o         1 MOL     -0.553840
     97 C31        -0.8460   -2.5460   -3.5700 c3        1 MOL      0.070514
     98 C32         0.4510   -1.9670   -4.1960 c3        1 MOL      0.182270
     99 C33        -2.1130   -1.6810   -3.8600 c3        1 MOL     -0.294274
    100 C34         0.5260   -2.0610   -5.7310 c3        1 MOL     -0.122042
    101 H42         0.4790   -4.5990   -2.2610 hn        1 MOL      0.338239
    102 H43        -0.4490   -1.7030   -1.5690 h1        1 MOL      0.180463
    103 H44        -1.0610   -3.5220   -4.0090 hc        1 MOL      0.039626
    104 H45         1.3310   -2.4820   -3.8100 hc        1 MOL     -0.027427
    105 H46         0.6420   -0.9470   -3.8630 hc        1 MOL     -0.027427
    106 H47        -2.9760   -2.1850   -3.4280 hc        1 MOL      0.057912
    107 H48        -2.0580   -0.6890   -3.4100 hc        1 MOL      0.057912
    108 H49        -2.3260   -1.6020   -4.9250 hc        1 MOL      0.057912
    109 H50         1.1680   -1.2790   -6.1260 hc        1 MOL      0.017699
    110 H51         0.8000   -2.9950   -6.2290 hc        1 MOL      0.017699
    111 H52        -0.4900   -1.8190   -6.0400 hc        1 MOL      0.017699
    112 N10        -2.3280   -2.4980   -0.2970 n         1 MOL     -0.217736
    113 C35        -3.5140   -2.8580    0.4970 c3        1 MOL     -0.023357
    114 C36        -4.8690   -2.4810   -0.1530 c         1 MOL      0.246353
    115 O17        -4.8160   -1.6480   -1.0680 o         1 MOL     -0.207709
    116 C37        -3.5150   -2.4230    2.0180 c3        1 MOL      0.143551
    117 C38        -2.2270   -2.5170    2.7940 c3        1 MOL     -0.218650
    118 O18        -3.9710   -1.0710    2.1580 oh        1 MOL     -0.444430
    119 H53        -1.7640   -1.7530    0.0970 hn        1 MOL      0.245949
    120 H54        -3.4880   -3.9400    0.6120 h1        1 MOL      0.081447
    121 H55        -4.3420   -2.9130    2.5340 h1        1 MOL      0.004313
    122 H56        -4.5860   -0.9550    2.8970 ho        1 MOL      0.352667
    123 H57        -2.0510   -3.5450    3.0860 hc        1 MOL      0.062469
    124 H58        -1.3740   -2.2000    2.1890 hc        1 MOL      0.062469
    125 H59        -2.3170   -1.9160    3.6960 hc        1 MOL      0.062469
    126 N11        -6.0350   -3.1360    0.0710 n         1 MOL     -0.237106
    127 C39        -7.3220   -2.7020   -0.6250 c3        1 MOL     -0.286353
    128 C40        -7.5880   -1.2070   -0.4660 c         1 MOL      0.420694
    129 O19        -8.0390   -0.4880   -1.3890 o         1 MOL     -0.474743
    130 C41        -8.5760   -3.4040   -0.0700 c3        1 MOL      0.422152
    131 C42        -8.6000   -4.8210   -0.6110 c3        1 MOL     -0.303395
    132 O20        -8.6160   -3.3810    1.3440 oh        1 MOL     -0.622529
    133 H60        -6.0270   -3.9840    0.6120 hn        1 MOL      0.278663
    134 H61        -7.2130   -2.8790   -1.6840 h1        1 MOL      0.185244
    135 H62        -9.5170   -3.0020   -0.4580 h1        1 MOL      0.026017
    136 H63        -9.5470   -3.4180    1.5770 ho        1 MOL      0.393230
    137 H64        -8.7530   -4.7420   -1.6870 hc        1 MOL      0.080413
    138 H65        -7.6810   -5.3550   -0.3610 hc        1 MOL      0.080413
    139 H66        -9.3810   -5.4060   -0.1370 hc        1 MOL      0.080413
    140 N12        -7.3570   -0.7100    0.7510 n         1 MOL     -0.389087
    141 C43        -7.3790    0.7020    1.1460 c3        1 MOL      0.105216
    142 C44        -6.3950    1.5760    0.3040 c         1 MOL      0.278041
    143 O21        -6.7120    2.7120   -0.0310 o         1 MOL     -0.518732
    144 C45        -6.9990    0.7540    2.6030 c3        1 MOL     -0.082114
    145 C46        -6.6390    2.1720    3.1640 c3        1 MOL     -0.270134
    146 C47        -6.0940    2.1170    4.6150 c3        1 MOL      0.165870
    147 C48        -7.0740    1.7520    5.7240 c3        1 MOL      0.033844
    148 N13        -6.4810    1.6890    7.0650 n4        1 MOL     -0.335270
    149 H67        -6.9390   -1.4280    1.3210 hn        1 MOL      0.223435
    150 H68        -8.3590    1.1740    1.0890 h1        1 MOL      0.098605
    151 H69        -6.0630    0.1990    2.6690 hc        1 MOL      0.028773
    152 H70        -7.7130    0.1620    3.1690 hc        1 MOL      0.028773
    153 H71        -7.5160    2.8290    3.2000 hc        1 MOL      0.112104
    154 H72        -5.8600    2.5950    2.5260 hc        1 MOL      0.112104
    155 H73        -5.7210    3.1120    4.8740 hc        1 MOL     -0.013172
    156 H74        -5.2280    1.4580    4.6190 hc        1 MOL     -0.013172
    157 H75        -7.4980    0.7690    5.5030 hx        1 MOL      0.069289
    158 H76        -7.8640    2.4970    5.6730 hx        1 MOL      0.069289
    159 H77        -5.7610    0.9950    7.1930 hn        1 MOL      0.284629
    160 H78        -6.1420    2.6200    7.2680 hn        1 MOL      0.284629
    161 H79        -7.1940    1.4450    7.7350 hn        1 MOL      0.284629
    162 N14        -5.1900    1.1190    0.0420 n         1 MOL      0.100264
    163 C49        -4.2020    1.8110   -0.8000 c3        1 MOL     -0.153083
    164 C50        -4.7130    1.9250   -2.2290 c         1 MOL      0.495546
    165 O22        -4.4790    2.9350   -2.8730 o         1 MOL     -0.576982
    166 C51        -2.7980    1.1250   -0.7940 c3        1 MOL      0.301463
    167 C52        -2.1140    1.3760    0.5910 c3        1 MOL     -0.166883
    168 C53        -0.7630    0.7420    0.6570 c         1 MOL      0.853189
    169 O23         0.2030    1.3640    1.0040 o         1 MOL     -0.777257
    170 O24        -0.5560   -0.4520    0.4510 o         1 MOL     -0.777257
    171 H80        -4.9140    0.2120    0.3860 hn        1 MOL      0.017101
    172 H81        -4.0580    2.8310   -0.4230 h1        1 MOL      0.077174
    173 H82        -2.2020    1.5540   -1.5960 hc        1 MOL     -0.063158
    174 H83        -2.9350    0.0550   -0.9220 hc        1 MOL     -0.063158
    175 H84        -2.8030    0.9490    1.3160 hc        1 MOL     -0.014447
    176 H85        -2.0280    2.4410    0.7830 hc        1 MOL     -0.014447
    177 N15        -5.4000    0.8590   -2.6630 n         1 MOL     -0.009496
    178 C54        -5.8740    0.7470   -4.0160 c3        1 MOL     -0.491805
    179 H86        -6.3840   -0.2070   -4.1440 h1        1 MOL      0.161815
    180 H87        -6.5670    1.5610   -4.2270 h1        1 MOL      0.161815
    181 H88        -5.0290    0.8010   -4.7020 h1        1 MOL      0.161815
    182 H89        -5.5170    0.0760   -2.0380 hn        1 MOL      0.046291
    183 Ca1         1.8800   -0.5890    1.4050 Ca        1 MOL      1.760556
    184 O25         0.4570    0.0980    3.6640 oh        1 MOL     -0.798109
    185 H90         0.9620    0.7150    4.1900 ho        1 MOL      0.375326
    186 H91        -0.4240    0.1250    4.0510 ho        1 MOL      0.375326
    187 O26         1.2250   -3.0690    2.5500 oh        1 MOL     -0.798109
    188 H92         0.5990   -3.3680    3.2070 ho        1 MOL      0.375326
    189 H93         1.4610   -3.8520    2.0600 ho        1 MOL      0.375326
@<TRIPOS>BOND
     1    1    2 1   
     2    1    4 1   
     3    1    5 1   
     4    1    6 1   
     5    2    3 2   
     6    2    7 1   
     7    7    8 1   
     8    7   15 1   
     9    8    9 1   
    10    8   11 1   
    11    8   16 1   
    12    9   10 2   
    13    9   19 1   
    14   11   12 1   
    15   11   17 1   
    16   11   18 1   
    17   12   13 1   
    18   12   14 1   
    19   19   20 1   
    20   19   28 1   
    21   20   21 1   
    22   20   23 1   
    23   20   29 1   
    24   21   22 2   
    25   21   41 1   
    26   23   24 1   
    27   23   30 1   
    28   23   31 1   
    29   24   25 1   
    30   24   32 1   
    31   24   33 1   
    32   25   26 1   
    33   25   34 1   
    34   25   35 1   
    35   26   27 1   
    36   26   36 1   
    37   26   37 1   
    38   27   38 1   
    39   27   39 1   
    40   27   40 1   
    41   41   42 1   
    42   41   49 1   
    43   42   43 1   
    44   42   45 1   
    45   42   50 1   
    46   43   44 2   
    47   43   53 1   
    48   45   46 1   
    49   45   51 1   
    50   45   52 1   
    51   46   47 1   
    52   46   48 1   
    53   53   54 1   
    54   53   57 1   
    55   54   55 1   
    56   54   58 1   
    57   54   59 1   
    58   55   56 2   
    59   55   60 1   
    60   60   61 1   
    61   60   68 1   
    62   61   62 1   
    63   61   64 1   
    64   61   69 1   
    65   62   63 2   
    66   62   72 1   
    67   64   65 1   
    68   64   70 1   
    69   64   71 1   
    70   65   66 1   
    71   65   67 1   
    72   72   73 1   
    73   72   76 1   
    74   73   74 1   
    75   73   77 1   
    76   73   78 1   
    77   74   75 2   
    78   74   79 1   
    79   79   80 1   
    80   79   86 1   
    81   80   81 1   
    82   80   83 1   
    83   80   87 1   
    84   81   82 2   
    85   81   93 1   
    86   83   84 1   
    87   83   85 1   
    88   83   88 1   
    89   84   90 1   
    90   84   91 1   
    91   84   92 1   
    92   85   89 1   
    93   93   94 1   
    94   93  101 1   
    95   94   95 1   
    96   94   97 1   
    97   94  102 1   
    98   95   96 2   
    99   95  112 1   
   100   97   98 1   
   101   97   99 1   
   102   97  103 1   
   103   98  100 1   
   104   98  104 1   
   105   98  105 1   
   106   99  106 1   
   107   99  107 1   
   108   99  108 1   
   109  100  109 1   
   110  100  110 1   
   111  100  111 1   
   112  112  113 1   
   113  112  119 1   
   114  113  114 1   
   115  113  116 1   
   116  113  120 1   
   117  114  115 2   
   118  114  126 1   
   119  116  117 1   
   120  116  118 1   
   121  116  121 1   
   122  117  123 1   
   123  117  124 1   
   124  117  125 1   
   125  118  122 1   
   126  126  127 1   
   127  126  133 1   
   128  127  128 1   
   129  127  130 1   
   130  127  134 1   
   131  128  129 2   
   132  128  140 1   
   133  130  131 1   
   134  130  132 1   
   135  130  135 1   
   136  131  137 1   
   137  131  138 1   
   138  131  139 1   
   139  132  136 1   
   140  140  141 1   
   141  140  149 1   
   142  141  142 1   
   143  141  144 1   
   144  141  150 1   
   145  142  143 2   
   146  142  162 1   
   147  144  145 1   
   148  144  151 1   
   149  144  152 1   
   150  145  146 1   
   151  145  153 1   
   152  145  154 1   
   153  146  147 1   
   154  146  155 1   
   155  146  156 1   
   156  147  148 1   
   157  147  157 1   
   158  147  158 1   
   159  148  159 1   
   160  148  160 1   
   161  148  161 1   
   162  162  163 1   
   163  162  171 1   
   164  163  164 1   
   165  163  166 1   
   166  163  172 1   
   167  164  165 2   
   168  164  177 1   
   169  166  167 1   
   170  166  173 1   
   171  166  174 1   
   172  167  168 1   
   173  167  175 1   
   174  167  176 1   
   175  168  169 1   
   176  168  170 1   
   177  177  178 1   
   178  177  182 1   
   179  178  179 1   
   180  178  180 1   
   181  178  181 1   
   182  184  185 1   
   183  184  186 1   
   184  187  188 1   
   185  187  189 1   
@<TRIPOS>SUBSTRUCTURE
     1 MOL         1 TEMP              0 ****  ****    0 ROOT
