@<TRIPOS>MOLECULE
MOL
  179   176     1     0     0
SMALL
resp


@<TRIPOS>ATOM
      1 C1          2.3250    4.0670    3.5590 c3        1 MOL     -0.363904
      2 C2          1.2590    3.4600    2.5110 c         1 MOL      0.535334
      3 O1          1.4910    3.4950    1.2810 o         1 MOL     -0.524177
      4 H1          2.4660    5.1290    3.3580 hc        1 MOL      0.101921
      5 H2          1.9520    3.9370    4.5750 hc        1 MOL      0.101921
      6 H3          3.2770    3.5470    3.4510 hc        1 MOL      0.101921
      7 N1          0.0750    3.0700    2.9610 n         1 MOL     -0.469755
      8 C3         -1.0800    2.6250    2.1340 c3        1 MOL      0.079430
      9 C4         -1.8010    3.7870    1.3730 c         1 MOL      0.416490
     10 O2         -2.9670    4.0680    1.6430 o         1 MOL     -0.493580
     11 C5         -1.9730    1.7110    2.9250 c3        1 MOL      0.178029
     12 C6         -3.0240    0.9180    2.0510 c         1 MOL      0.498225
     13 O3         -4.1630    0.7380    2.5320 o         1 MOL     -0.643812
     14 O4         -2.5970    0.4500    0.9950 o         1 MOL     -0.643812
     15 H4         -0.0400    2.9730    3.9550 hn        1 MOL      0.289497
     16 H5         -0.8490    2.0210    1.2570 h1        1 MOL      0.007825
     17 H6         -2.5240    2.2400    3.7010 hc        1 MOL     -0.050118
     18 H7         -1.3560    0.9360    3.3590 hc        1 MOL     -0.050118
     19 N2         -1.2110    4.4160    0.4310 n         1 MOL     -0.313500
     20 C7         -1.7180    5.6370   -0.2590 c3        1 MOL     -0.028017
     21 C8         -2.8800    5.4920   -1.2010 c         1 MOL      0.400546
     22 O5         -3.6800    6.3960   -1.4460 o         1 MOL     -0.500958
     23 C9         -0.5290    6.2410   -0.9960 c3        1 MOL     -0.293316
     24 C10         0.5100    6.8560   -0.1030 c3        1 MOL      0.424021
     25 C11         1.4410    7.8560   -0.8280 c3        1 MOL     -0.158160
     26 C12         2.8200    7.8980   -0.1850 c3        1 MOL      0.032354
     27 N3          2.8660    8.3790    1.2270 n4        1 MOL     -0.380900
     28 H8         -0.2280    4.1710    0.3850 hn        1 MOL      0.293300
     29 H9         -2.0890    6.3510    0.4660 h1        1 MOL      0.112245
     30 H10        -0.9410    6.9990   -1.6730 hc        1 MOL      0.103326
     31 H11        -0.0230    5.4630   -1.5680 hc        1 MOL      0.103326
     32 H12         1.0360    5.9990    0.3150 hc        1 MOL     -0.102584
     33 H13        -0.0050    7.3990    0.6850 hc        1 MOL     -0.102584
     34 H14         1.0320    8.8680   -0.7730 hc        1 MOL      0.054698
     35 H15         1.5280    7.6190   -1.8870 hc        1 MOL      0.054698
     36 H16         3.4800    8.5310   -0.7760 hx        1 MOL      0.106009
     37 H17         3.3550    6.9450   -0.2340 hx        1 MOL      0.106009
     38 H18         3.8360    8.4870    1.4770 hn        1 MOL      0.328986
     39 H19         2.3510    9.2410    1.3180 hn        1 MOL      0.328986
     40 H20         2.3870    7.7670    1.8790 hn        1 MOL      0.328986
     41 N4         -3.0640    4.3040   -1.8090 n         1 MOL     -0.199849
     42 C13        -4.3310    3.8640   -2.3180 c3        1 MOL     -0.214675
     43 C14        -5.4420    3.3460   -1.3420 c         1 MOL      0.544441
     44 O6         -6.6570    3.2540   -1.7450 o         1 MOL     -0.571541
     45 C15        -4.1960    2.8880   -3.5140 c3        1 MOL      0.045891
     46 C16        -3.7930    1.4980   -3.1900 c         1 MOL      0.730939
     47 O7         -3.4490    1.1190   -2.0280 o         1 MOL     -0.709676
     48 O8         -3.8500    0.7530   -4.1380 o         1 MOL     -0.709676
     49 H21        -2.2850    3.6660   -1.8200 hn        1 MOL      0.184817
     50 H22        -4.7910    4.8000   -2.6320 h1        1 MOL      0.124907
     51 H23        -3.4770    3.2650   -4.2530 hc        1 MOL      0.013463
     52 H24        -5.1450    2.9170   -4.0500 hc        1 MOL      0.013463
     53 N5         -5.1070    2.9900   -0.1120 n         1 MOL     -0.148434
     54 C17        -6.1290    2.5710    0.8300 c3        1 MOL     -0.189224
     55 C18        -6.5490    1.1310    0.8390 c         1 MOL      0.580818
     56 O9         -7.4510    0.7360    1.6030 o         1 MOL     -0.594347
     57 H25        -4.1570    3.0190    0.2490 hn        1 MOL      0.177403
     58 H26        -7.0070    3.2080    0.7200 h1        1 MOL      0.105971
     59 H27        -5.7120    2.8690    1.7960 h1        1 MOL      0.105971
     60 N6         -5.9640    0.2670   -0.0190 n         1 MOL     -0.255920
     61 C19        -6.5010   -1.0830   -0.2690 c3        1 MOL      0.062764
     62 C20        -6.0550   -2.1210    0.7720 c         1 MOL      0.167163
     63 O10        -6.1840   -3.3510    0.5950 o         1 MOL     -0.398431
     64 C21        -6.1870   -1.3800   -1.7200 c3        1 MOL     -0.523866
     65 C22        -4.9510   -2.1700   -1.9650 c         1 MOL      0.740577
     66 N7         -4.8590   -2.9390   -3.0220 n         1 MOL     -0.511344
     67 O11        -3.9240   -2.0500   -1.2890 o         1 MOL     -0.623576
     68 H28        -5.2040    0.6880   -0.5200 hn        1 MOL      0.099357
     69 H29        -7.5770   -1.0260   -0.0980 h1        1 MOL      0.131022
     70 H30        -6.2010   -0.4830   -2.3320 hc        1 MOL      0.181377
     71 H31        -7.0570   -1.9640   -2.0350 hc        1 MOL      0.181377
     72 H32        -5.5030   -2.8490   -3.7980 hn        1 MOL      0.266079
     73 H33        -3.9340   -3.3020   -3.2150 hn        1 MOL      0.266079
     74 N8         -5.4630   -1.6750    1.8690 n         1 MOL     -0.035155
     75 C23        -5.3210   -2.4730    3.0690 c3        1 MOL     -0.195737
     76 C24        -4.0630   -3.3220    3.0690 c         1 MOL      0.573773
     77 O12        -3.9180   -4.0710    3.9620 o         1 MOL     -0.604012
     78 H34        -5.3060   -0.6740    1.8880 hn        1 MOL      0.279655
     79 H35        -6.2040   -3.1060    3.2290 h1        1 MOL      0.089825
     80 H36        -5.2780   -1.7910    3.9190 h1        1 MOL      0.089825
     81 N9         -3.2070   -3.1250    2.1480 n         1 MOL     -0.021357
     82 C25        -1.8580   -3.7610    2.2450 c3        1 MOL      0.090293
     83 C26        -0.7680   -2.9470    1.5580 c         1 MOL      0.134643
     84 O13        -1.1260   -2.2120    0.6610 o         1 MOL     -0.387233
     85 C27        -1.9390   -5.2840    1.8300 c3        1 MOL     -0.097964
     86 C28        -2.3960   -5.5260    0.4100 ca        1 MOL     -0.139507
     87 C29        -3.7820   -5.3940    0.1080 ca        1 MOL      0.063733
     88 C30        -1.4960   -5.8860   -0.5830 ca        1 MOL      0.063733
     89 C31        -4.1840   -5.4540   -1.1790 ca        1 MOL     -0.309740
     90 C32        -1.9150   -6.1120   -1.8810 ca        1 MOL     -0.309740
     91 C33        -3.2220   -5.8410   -2.1750 ca        1 MOL      0.299141
     92 O14        -3.8030   -5.7610   -3.4640 oh        1 MOL     -0.448965
     93 H37        -3.4100   -2.4640    1.4070 hn        1 MOL      0.076989
     94 H38        -1.6120   -3.7100    3.3090 h1        1 MOL     -0.000933
     95 H39        -2.7350   -5.6840    2.4570 hc        1 MOL      0.057255
     96 H40        -1.0020   -5.7790    2.1040 hc        1 MOL      0.057255
     97 H41        -4.5210   -5.2020    0.8750 ha        1 MOL      0.058371
     98 H42        -0.4830   -6.1540   -0.3170 ha        1 MOL      0.058371
     99 H43        -5.2180   -5.3010   -1.4740 ha        1 MOL      0.121979
    100 H44        -1.2470   -6.4340   -2.6620 ha        1 MOL      0.121979
    101 H45        -3.1390   -5.9060   -4.1490 ho        1 MOL      0.330830
    102 N10         0.3850   -2.9970    2.1170 n         1 MOL     -0.055195
    103 C34         1.5970   -2.2380    1.7640 c3        1 MOL     -0.492227
    104 C35         2.6940   -3.2090    1.3660 c         1 MOL      0.613139
    105 O15         2.9910   -4.1530    2.0980 o         1 MOL     -0.548367
    106 C36         2.1100   -1.2540    2.8640 c3        1 MOL      0.108669
    107 C37         2.6550   -1.8430    4.2370 c3        1 MOL     -0.116093
    108 C38         0.8510   -0.4390    3.1760 c3        1 MOL     -0.214271
    109 C39         2.9260   -0.8210    5.3430 c3        1 MOL     -0.189212
    110 H46         0.5810   -3.7880    2.7100 hn        1 MOL      0.281313
    111 H47         1.4290   -1.6230    0.8780 h1        1 MOL      0.296850
    112 H48         2.8520   -0.5430    2.4890 hc        1 MOL      0.013306
    113 H49         3.5510   -2.4180    4.0160 hc        1 MOL      0.067435
    114 H50         1.9050   -2.5470    4.5910 hc        1 MOL      0.067435
    115 H51         0.3040   -0.8940    4.0090 hc        1 MOL      0.080310
    116 H52         1.1400    0.5720    3.4670 hc        1 MOL      0.080310
    117 H53         0.2590   -0.2690    2.2760 hc        1 MOL      0.080310
    118 H54         3.4660    0.0890    5.0850 hc        1 MOL      0.054095
    119 H55         1.8910   -0.6200    5.6530 hc        1 MOL      0.054095
    120 H56         3.4220   -1.2520    6.2040 hc        1 MOL      0.054095
    121 N11         3.2410   -2.9840    0.1840 n         1 MOL     -0.368235
    122 C40         4.4570   -3.5670   -0.4540 c3        1 MOL      0.056571
    123 C41         5.8470   -2.9410   -0.0730 c         1 MOL      0.573625
    124 O16         5.9150   -2.0010    0.6890 o         1 MOL     -0.422653
    125 C42         4.2170   -3.2650   -1.9140 c3        1 MOL     -0.262404
    126 O17         4.2440   -1.8700   -2.1190 oh        1 MOL     -0.277459
    127 H57         2.9490   -2.1720   -0.3510 hn        1 MOL      0.186355
    128 H58         4.5640   -4.6380   -0.2790 h1        1 MOL      0.079831
    129 H59         3.2670   -3.7090   -2.2180 h1        1 MOL      0.115500
    130 H60         4.9840   -3.7310   -2.5420 h1        1 MOL      0.115500
    131 H61         3.9570   -1.7660   -3.0280 ho        1 MOL      0.364268
    132 N12         7.0130   -3.4550   -0.5420 n         1 MOL     -0.613527
    133 C43         8.3320   -2.8540   -0.1960 c3        1 MOL      0.261712
    134 C44         8.4230   -1.4740   -0.8520 c         1 MOL      0.324382
    135 O18         9.2210   -0.6500   -0.4490 o         1 MOL     -0.485669
    136 C45         9.3850   -3.8490   -0.6880 c3        1 MOL     -0.310908
    137 H62         7.0640   -4.1800   -1.2420 hn        1 MOL      0.321714
    138 H63         8.5180   -2.8390    0.8850 h1        1 MOL      0.077067
    139 H64         9.0940   -4.1730   -1.6840 hc        1 MOL      0.094705
    140 H65        10.3810   -3.4080   -0.6210 hc        1 MOL      0.094705
    141 H66         9.3440   -4.7300   -0.0410 hc        1 MOL      0.094705
    142 N13         7.6730   -1.2940   -1.9380 n         1 MOL     -0.232962
    143 C46         7.6980   -0.1080   -2.6890 c3        1 MOL      0.178820
    144 C47         6.8630    0.9970   -1.9820 c         1 MOL      0.280470
    145 O19         7.1900    2.1850   -1.9930 o         1 MOL     -0.518956
    146 C48         7.2070   -0.2730   -4.1270 c3        1 MOL     -0.224453
    147 H67         7.0510   -2.0150   -2.2550 hn        1 MOL      0.195929
    148 H68         8.6900    0.3350   -2.7830 h1        1 MOL      0.061372
    149 H69         7.3990    0.6060   -4.7260 hc        1 MOL      0.056079
    150 H70         7.7690   -1.1120   -4.5530 hc        1 MOL      0.056079
    151 H71         6.1270   -0.4030   -4.0240 hc        1 MOL      0.056079
    152 N14         5.7680    0.5710   -1.3820 n         1 MOL      0.133378
    153 C49         4.9550    1.4790   -0.4710 c3        1 MOL     -0.017396
    154 C50         5.7300    1.8920    0.7360 c         1 MOL      0.446613
    155 O20         5.5800    3.0610    1.0950 o         1 MOL     -0.558908
    156 C51         3.5120    0.9390   -0.2810 c3        1 MOL     -0.355658
    157 C52         2.5300    1.3890   -1.4070 c3        1 MOL     -0.167095
    158 C53         1.2050    0.6750   -1.3380 c         1 MOL      0.748959
    159 O21         0.6960    0.1890   -0.3110 o         1 MOL     -0.769885
    160 O22         0.4990    0.7170   -2.3580 o         1 MOL     -0.769885
    161 H72         5.4360   -0.3880   -1.4100 hn        1 MOL     -0.162022
    162 H73         4.8510    2.4240   -0.9950 h1        1 MOL      0.084440
    163 H74         3.0780    1.2750    0.6580 hc        1 MOL      0.179921
    164 H75         3.4980   -0.1420   -0.1710 hc        1 MOL      0.179921
    165 H76         2.9620    1.3260   -2.4040 hc        1 MOL      0.061941
    166 H77         2.3480    2.4600   -1.3110 hc        1 MOL      0.061941
    167 N15         6.5170    1.0000    1.3580 n         1 MOL     -0.142059
    168 C54         7.5470    1.3100    2.2960 c3        1 MOL     -0.144617
    169 H78         7.6210    2.3920    2.4100 h1        1 MOL      0.075262
    170 H79         7.3110    0.8590    3.2590 h1        1 MOL      0.075262
    171 H80         8.4980    0.9180    1.9340 h1        1 MOL      0.075262
    172 H81         6.3790    0.0220    1.1460 hn        1 MOL      0.158002
    173 Ca1        -1.6410   -0.6630   -1.2300 Ca        1 MOL      1.708579
    174 O23        -2.0980   -1.0400   -3.7430 oh        1 MOL     -0.874976
    175 H82        -2.7350   -0.3950   -4.0700 ho        1 MOL      0.406085
    176 H83        -1.5670   -1.2540   -4.5140 ho        1 MOL      0.406085
    177 O24        -0.2250   -2.8790   -1.9480 oh        1 MOL     -0.874976
    178 H84        -0.0700   -3.7020   -1.4710 ho        1 MOL      0.406085
    179 H85         0.1880   -3.0240   -2.8020 ho        1 MOL      0.406085
@<TRIPOS>BOND
     1    1    2 1   
     2    1    4 1   
     3    1    5 1   
     4    1    6 1   
     5    2    3 2   
     6    2    7 1   
     7    7    8 1   
     8    7   15 1   
     9    8    9 1   
    10    8   11 1   
    11    8   16 1   
    12    9   10 2   
    13    9   19 1   
    14   11   12 1   
    15   11   17 1   
    16   11   18 1   
    17   12   13 1   
    18   12   14 1   
    19   19   20 1   
    20   19   28 1   
    21   20   21 1   
    22   20   23 1   
    23   20   29 1   
    24   21   22 2   
    25   21   41 1   
    26   23   24 1   
    27   23   30 1   
    28   23   31 1   
    29   24   25 1   
    30   24   32 1   
    31   24   33 1   
    32   25   26 1   
    33   25   34 1   
    34   25   35 1   
    35   26   27 1   
    36   26   36 1   
    37   26   37 1   
    38   27   38 1   
    39   27   39 1   
    40   27   40 1   
    41   41   42 1   
    42   41   49 1   
    43   42   43 1   
    44   42   45 1   
    45   42   50 1   
    46   43   44 2   
    47   43   53 1   
    48   45   46 1   
    49   45   51 1   
    50   45   52 1   
    51   46   47 1   
    52   46   48 1   
    53   53   54 1   
    54   53   57 1   
    55   54   55 1   
    56   54   58 1   
    57   54   59 1   
    58   55   56 2   
    59   55   60 1   
    60   60   61 1   
    61   60   68 1   
    62   61   62 1   
    63   61   64 1   
    64   61   69 1   
    65   62   63 2   
    66   62   74 1   
    67   64   65 1   
    68   64   70 1   
    69   64   71 1   
    70   65   66 1   
    71   65   67 2   
    72   66   72 1   
    73   66   73 1   
    74   74   75 1   
    75   74   78 1   
    76   75   76 1   
    77   75   79 1   
    78   75   80 1   
    79   76   77 2   
    80   76   81 1   
    81   81   82 1   
    82   81   93 1   
    83   82   83 1   
    84   82   85 1   
    85   82   94 1   
    86   83   84 2   
    87   83  102 1   
    88   85   86 1   
    89   85   95 1   
    90   85   96 1   
    91   86   87 ar  
    92   86   88 ar  
    93   87   89 ar  
    94   87   97 1   
    95   88   90 ar  
    96   88   98 1   
    97   89   91 ar  
    98   89   99 1   
    99   90   91 ar  
   100   90  100 1   
   101   91   92 1   
   102   92  101 1   
   103  102  103 1   
   104  102  110 1   
   105  103  104 1   
   106  103  106 1   
   107  103  111 1   
   108  104  105 2   
   109  104  121 1   
   110  106  107 1   
   111  106  108 1   
   112  106  112 1   
   113  107  109 1   
   114  107  113 1   
   115  107  114 1   
   116  108  115 1   
   117  108  116 1   
   118  108  117 1   
   119  109  118 1   
   120  109  119 1   
   121  109  120 1   
   122  121  122 1   
   123  121  127 1   
   124  122  123 1   
   125  122  125 1   
   126  122  128 1   
   127  123  124 2   
   128  123  132 1   
   129  125  126 1   
   130  125  129 1   
   131  125  130 1   
   132  126  131 1   
   133  132  133 1   
   134  132  137 1   
   135  133  134 1   
   136  133  136 1   
   137  133  138 1   
   138  134  135 2   
   139  134  142 1   
   140  136  139 1   
   141  136  140 1   
   142  136  141 1   
   143  142  143 1   
   144  142  147 1   
   145  143  144 1   
   146  143  146 1   
   147  143  148 1   
   148  144  145 2   
   149  144  152 1   
   150  146  149 1   
   151  146  150 1   
   152  146  151 1   
   153  152  153 1   
   154  152  161 1   
   155  153  154 1   
   156  153  156 1   
   157  153  162 1   
   158  154  155 2   
   159  154  167 1   
   160  156  157 1   
   161  156  163 1   
   162  156  164 1   
   163  157  158 1   
   164  157  165 1   
   165  157  166 1   
   166  158  159 1   
   167  158  160 1   
   168  167  168 1   
   169  167  172 1   
   170  168  169 1   
   171  168  170 1   
   172  168  171 1   
   173  174  175 1   
   174  174  176 1   
   175  177  178 1   
   176  177  179 1   
@<TRIPOS>SUBSTRUCTURE
     1 MOL         1 TEMP              0 ****  ****    0 ROOT
