@<TRIPOS>MOLECULE
MOL
  179   176     1     0     0
SMALL
resp


@<TRIPOS>ATOM
      1 C1          1.8520    4.1010    3.8700 c3        1 MOL     -0.489134
      2 C2          1.1020    3.5170    2.7670 c         1 MOL      0.776927
      3 O1          1.5820    3.5060    1.6340 o         1 MOL     -0.636718
      4 H1          1.5910    3.5900    4.7970 hc        1 MOL      0.121880
      5 H2          2.9200    3.9920    3.6830 hc        1 MOL      0.121880
      6 H3          1.6040    5.1590    3.9580 hc        1 MOL      0.121880
      7 N1         -0.0990    3.0220    3.1120 n         1 MOL     -0.693365
      8 C3         -1.1360    2.6340    2.1030 c3        1 MOL      0.075417
      9 C4         -1.8120    3.9070    1.5650 c         1 MOL      0.581046
     10 O2         -2.9400    4.2080    1.9980 o         1 MOL     -0.505216
     11 C5         -2.1340    1.6150    2.6760 c3        1 MOL     -0.033687
     12 C6         -3.0600    1.1550    1.5460 c         1 MOL      0.643718
     13 O3         -4.2140    0.7150    1.7640 o         1 MOL     -0.674592
     14 O4         -2.6470    1.2160    0.3770 o         1 MOL     -0.674592
     15 H4         -0.4200    3.2950    4.0300 hn        1 MOL      0.355242
     16 H5         -0.5530    2.2770    1.2600 h1        1 MOL     -0.037767
     17 H6         -2.8020    2.0060    3.4480 hc        1 MOL      0.024002
     18 H7         -1.5990    0.7920    3.1430 hc        1 MOL      0.024002
     19 N2         -1.1320    4.6620    0.6690 n         1 MOL     -0.555834
     20 C7         -1.6670    5.8670    0.0570 c3        1 MOL      0.135885
     21 C8         -2.9240    5.4600   -0.8600 c         1 MOL      0.387837
     22 O5         -3.9110    6.1570   -0.8260 o         1 MOL     -0.520604
     23 C9         -0.5660    6.6260   -0.7430 c3        1 MOL     -0.167472
     24 C10         0.3750    7.3810    0.1840 c3        1 MOL      0.075617
     25 C11         1.3650    8.2100   -0.6630 c3        1 MOL      0.090754
     26 C12         2.5130    8.8150    0.1580 c3        1 MOL     -0.086074
     27 N3          3.3560    7.8500    0.8610 n4        1 MOL     -0.436341
     28 H8         -0.1970    4.3780    0.4230 hn        1 MOL      0.424157
     29 H9         -2.1990    6.4330    0.8160 h1        1 MOL      0.056433
     30 H10        -1.0180    7.3470   -1.4180 hc        1 MOL      0.054195
     31 H11         0.0190    5.9150   -1.3260 hc        1 MOL      0.054195
     32 H12         0.8780    6.6610    0.8270 hc        1 MOL     -0.015430
     33 H13        -0.1590    8.1040    0.8040 hc        1 MOL     -0.015430
     34 H14         0.9700    9.1040   -1.1420 hc        1 MOL      0.025648
     35 H15         1.8480    7.6840   -1.4860 hc        1 MOL      0.025648
     36 H16         2.1910    9.6570    0.7740 hx        1 MOL      0.108261
     37 H17         3.1700    9.1850   -0.6290 hx        1 MOL      0.108261
     38 H18         4.3070    8.1680    0.9650 hn        1 MOL      0.362920
     39 H19         2.9620    7.6310    1.7610 hn        1 MOL      0.362920
     40 H20         3.2510    7.0530    0.2520 hn        1 MOL      0.362920
     41 N4         -2.7700    4.4090   -1.5960 n         1 MOL     -0.255084
     42 C13        -3.7730    4.0860   -2.6020 c3        1 MOL      0.050738
     43 C14        -5.1130    3.5390   -2.0290 c         1 MOL      0.380730
     44 O6         -6.1380    3.6400   -2.6800 o         1 MOL     -0.521987
     45 C15        -3.3070    3.0700   -3.6290 c3        1 MOL     -0.377976
     46 C16        -2.5530    1.9180   -3.0370 c         1 MOL      0.949375
     47 O7         -3.1500    0.7900   -2.9410 o         1 MOL     -0.795894
     48 O8         -1.3720    1.9840   -2.6810 o         1 MOL     -0.795894
     49 H21        -1.9230    3.8650   -1.4790 hn        1 MOL      0.199382
     50 H22        -4.0900    4.9910   -3.1090 h1        1 MOL      0.096648
     51 H23        -2.5760    3.5020   -4.3140 hc        1 MOL      0.090505
     52 H24        -4.1320    2.6810   -4.2290 hc        1 MOL      0.090505
     53 N5         -5.0410    3.0980   -0.7680 n         1 MOL     -0.011913
     54 C17        -6.2230    2.8700    0.0900 c3        1 MOL     -0.307957
     55 C18        -6.8540    1.5060    0.0840 c         1 MOL      0.667108
     56 O9         -8.0070    1.4700    0.4080 o         1 MOL     -0.587728
     57 H25        -4.1470    3.1520   -0.2970 hn        1 MOL      0.180393
     58 H26        -6.9650    3.6130   -0.2200 h1        1 MOL      0.127017
     59 H27        -5.9820    3.1060    1.1240 h1        1 MOL      0.127017
     60 N6         -6.1680    0.4830   -0.4190 n         1 MOL     -0.244187
     61 C19        -6.6200   -0.8760   -0.6950 c3        1 MOL     -0.019568
     62 C20        -6.5440   -1.8680    0.4900 c         1 MOL      0.385599
     63 O10        -7.2320   -2.9130    0.5060 o         1 MOL     -0.543633
     64 C21        -5.9440   -1.4900   -1.9060 c3        1 MOL     -0.082216
     65 C22        -4.5380   -2.0830   -1.5970 c         1 MOL      0.614616
     66 N7         -4.3560   -3.3550   -1.8860 n         1 MOL     -0.792512
     67 O11        -3.7210   -1.5220   -0.8220 o         1 MOL     -0.611524
     68 H28        -5.1750    0.6160   -0.5300 hn        1 MOL      0.056541
     69 H29        -7.6550   -0.8380   -1.0340 h1        1 MOL      0.105606
     70 H30        -5.8220   -0.7770   -2.7130 hc        1 MOL      0.058495
     71 H31        -6.6010   -2.3080   -2.2170 hc        1 MOL      0.058495
     72 H32        -5.1520   -3.8710   -2.2300 hn        1 MOL      0.348289
     73 H33        -3.5620   -3.8660   -1.5220 hn        1 MOL      0.348289
     74 N8         -5.7700   -1.5780    1.5360 n         1 MOL     -0.152509
     75 C23        -5.6850   -2.3430    2.8420 c3        1 MOL     -0.222969
     76 C24        -4.4630   -3.1860    3.0410 c         1 MOL      0.435145
     77 O12        -4.4960   -3.9080    4.0810 o         1 MOL     -0.553851
     78 H34        -5.2820   -0.6910    1.5930 hn        1 MOL      0.213116
     79 H35        -6.5700   -2.9690    2.9910 h1        1 MOL      0.137267
     80 H36        -5.7480   -1.6240    3.6610 h1        1 MOL      0.137267
     81 N9         -3.5030   -3.1580    2.1390 n         1 MOL     -0.095427
     82 C25        -2.1400   -3.7030    2.3530 c3        1 MOL     -0.146244
     83 C26        -1.0240   -2.8740    1.8050 c         1 MOL      0.764227
     84 O13        -1.2720   -1.9380    0.9770 o         1 MOL     -0.714439
     85 C27        -2.1430   -5.1970    1.9350 c3        1 MOL     -0.084596
     86 C28        -2.7590   -5.5800    0.6300 ca        1 MOL      0.124480
     87 C29        -4.1360   -5.8180    0.4600 ca        1 MOL     -0.224685
     88 C30        -1.8350   -5.5750   -0.4720 ca        1 MOL     -0.224685
     89 C31        -4.5630   -6.3770   -0.7390 ca        1 MOL     -0.203736
     90 C32        -2.3890   -6.1550   -1.6580 ca        1 MOL     -0.203736
     91 C33        -3.7050   -6.6340   -1.8170 ca        1 MOL      0.306130
     92 O14        -4.0520   -7.3260   -2.9470 oh        1 MOL     -0.527067
     93 H37        -3.5520   -2.3670    1.5150 hn        1 MOL      0.219808
     94 H38        -1.8730   -3.6060    3.4060 h1        1 MOL      0.067963
     95 H39        -2.7660   -5.7080    2.6640 hc        1 MOL      0.049636
     96 H40        -1.1380   -5.6040    2.0230 hc        1 MOL      0.049636
     97 H41        -4.8150   -5.7580    1.2980 ha        1 MOL      0.190037
     98 H42        -0.8330   -5.1890   -0.4010 ha        1 MOL      0.190037
     99 H43        -5.6230   -6.5590   -0.8140 ha        1 MOL      0.117530
    100 H44        -1.6340   -6.3420   -2.4070 ha        1 MOL      0.117530
    101 H45        -5.0070   -7.4200   -2.9020 ho        1 MOL      0.405476
    102 N10         0.2330   -2.9880    2.2100 n         1 MOL     -0.456467
    103 C34         1.3820   -2.3080    1.7380 c3        1 MOL     -0.060814
    104 C35         2.4140   -3.3750    1.2210 c         1 MOL      0.350790
    105 O15         2.5430   -4.5060    1.6860 o         1 MOL     -0.525586
    106 C36         2.0690   -1.2750    2.6410 c3        1 MOL      0.089877
    107 C37         2.7240   -1.8780    3.9230 c3        1 MOL     -0.218664
    108 C38         1.0760   -0.1540    2.9370 c3        1 MOL     -0.652855
    109 C39         3.5090   -0.8570    4.6700 c3        1 MOL     -0.101329
    110 H46         0.3000   -3.6130    2.9970 hn        1 MOL      0.285542
    111 H47         1.1080   -1.7840    0.8250 h1        1 MOL      0.185627
    112 H48         2.8640   -0.8560    2.0180 hc        1 MOL      0.034538
    113 H49         3.3400   -2.7410    3.6740 hc        1 MOL      0.102930
    114 H50         1.8790   -2.2430    4.5050 hc        1 MOL      0.102930
    115 H51         1.5440    0.6970    3.4170 hc        1 MOL      0.212911
    116 H52         0.7170    0.2180    1.9740 hc        1 MOL      0.212911
    117 H53         0.2660   -0.5800    3.5280 hc        1 MOL      0.212911
    118 H54         2.8550   -0.1190    5.1100 hc        1 MOL      0.032374
    119 H55         4.0500   -1.3910    5.4560 hc        1 MOL      0.032374
    120 H56         4.1950   -0.2890    4.0350 hc        1 MOL      0.032374
    121 N11         3.1990   -2.9950    0.2070 n         1 MOL     -0.146716
    122 C40         4.3310   -3.6660   -0.3020 c3        1 MOL      0.074179
    123 C41         5.6140   -2.9670    0.1250 c         1 MOL      0.543183
    124 O16         5.6130   -1.9290    0.7440 o         1 MOL     -0.438427
    125 C42         4.1370   -3.8320   -1.8650 c3        1 MOL     -0.261639
    126 O17         4.4040   -2.5390   -2.4850 oh        1 MOL     -0.474550
    127 H57         3.1370   -1.9950    0.0740 hn        1 MOL      0.127775
    128 H58         4.3700   -4.6410    0.1710 h1        1 MOL      0.065139
    129 H59         3.1510   -4.2010   -2.1500 h1        1 MOL      0.131767
    130 H60         4.9160   -4.5080   -2.2360 h1        1 MOL      0.131767
    131 H61         3.9360   -2.6500   -3.3140 ho        1 MOL      0.390748
    132 N12         6.7120   -3.6360   -0.2440 n         1 MOL     -0.539945
    133 C43         8.0460   -3.1070    0.0200 c3        1 MOL      0.223502
    134 C44         8.2880   -1.7440   -0.6500 c         1 MOL      0.411059
    135 O18         8.8930   -0.8760   -0.0430 o         1 MOL     -0.490728
    136 C45         9.0750   -4.1510   -0.3170 c3        1 MOL     -0.203339
    137 H62         6.6090   -4.5880   -0.5450 hn        1 MOL      0.302625
    138 H63         8.1750   -2.9380    1.0910 h1        1 MOL      0.040993
    139 H64         9.9400   -4.0750    0.3330 hc        1 MOL      0.061329
    140 H65         8.7360   -5.1830   -0.2510 hc        1 MOL      0.061329
    141 H66         9.4210   -3.9330   -1.3310 hc        1 MOL      0.061329
    142 N13         7.9220   -1.5430   -1.9500 n         1 MOL     -0.305306
    143 C46         7.8660   -0.2640   -2.6530 c3        1 MOL      0.070196
    144 C47         7.0070    0.8310   -1.9120 c         1 MOL      0.317494
    145 O19         7.4270    2.0040   -1.8210 o         1 MOL     -0.510764
    146 C48         7.3070   -0.5350   -4.0620 c3        1 MOL     -0.233671
    147 H67         7.6510   -2.3710   -2.4650 hn        1 MOL      0.246211
    148 H68         8.8910    0.0610   -2.7690 h1        1 MOL      0.081426
    149 H69         6.9510    0.3480   -4.5900 hc        1 MOL      0.061573
    150 H70         8.0370   -1.1120   -4.6460 hc        1 MOL      0.061573
    151 H71         6.5040   -1.2650   -4.0080 hc        1 MOL      0.061573
    152 N14         5.8630    0.4840   -1.4310 n         1 MOL      0.039523
    153 C49         5.0320    1.4990   -0.6870 c3        1 MOL     -0.250113
    154 C50         5.7390    1.9090    0.6660 c         1 MOL      0.516124
    155 O20         5.6920    3.0640    0.9740 o         1 MOL     -0.568417
    156 C51         3.7060    0.9930   -0.2920 c3        1 MOL      0.123078
    157 C52         2.8600    0.7900   -1.4860 c3        1 MOL      0.077939
    158 C53         1.5460    0.1310   -1.0830 c         1 MOL      0.610932
    159 O21         1.2920   -1.0660   -1.3080 o         1 MOL     -0.719510
    160 O22         0.6780    0.8750   -0.5350 o         1 MOL     -0.719510
    161 H72         5.5130   -0.4600   -1.4830 hn        1 MOL      0.081156
    162 H73         4.8710    2.3540   -1.3360 h1        1 MOL      0.127549
    163 H74         3.3040    1.8060    0.3030 hc        1 MOL      0.039155
    164 H75         3.7540    0.0400    0.2440 hc        1 MOL      0.039155
    165 H76         3.4320    0.2680   -2.2550 hc        1 MOL     -0.049918
    166 H77         2.6410    1.7620   -1.9370 hc        1 MOL     -0.049918
    167 N15         6.3750    0.9630    1.3930 n         1 MOL     -0.113948
    168 C54         7.2370    1.2270    2.5130 c3        1 MOL     -0.315129
    169 H78         6.8620    0.7030    3.3920 h1        1 MOL      0.113730
    170 H79         8.2450    0.8800    2.2870 h1        1 MOL      0.113730
    171 H80         7.2580    2.2990    2.7120 h1        1 MOL      0.113730
    172 H81         6.4850   -0.0040    1.1170 hn        1 MOL      0.165428
    173 Ca1        -1.4660   -0.3060   -1.3670 Ca        1 MOL      1.768556
    174 O23        -0.5950   -0.7670   -4.1120 oh        1 MOL     -0.766720
    175 H82        -0.9020   -0.8620   -5.0150 ho        1 MOL      0.374515
    176 H83         0.1070   -1.4090   -4.0340 ho        1 MOL      0.374515
    177 O24        -1.4130   -2.8540   -2.2110 oh        1 MOL     -0.766720
    178 H84        -1.9550   -3.0240   -2.9710 ho        1 MOL      0.374515
    179 H85        -0.7620   -3.5630   -2.2110 ho        1 MOL      0.374515
@<TRIPOS>BOND
     1    1    2 1   
     2    1    4 1   
     3    1    5 1   
     4    1    6 1   
     5    2    3 2   
     6    2    7 1   
     7    7    8 1   
     8    7   15 1   
     9    8    9 1   
    10    8   11 1   
    11    8   16 1   
    12    9   10 2   
    13    9   19 1   
    14   11   12 1   
    15   11   17 1   
    16   11   18 1   
    17   12   13 1   
    18   12   14 1   
    19   19   20 1   
    20   19   28 1   
    21   20   21 1   
    22   20   23 1   
    23   20   29 1   
    24   21   22 2   
    25   21   41 1   
    26   23   24 1   
    27   23   30 1   
    28   23   31 1   
    29   24   25 1   
    30   24   32 1   
    31   24   33 1   
    32   25   26 1   
    33   25   34 1   
    34   25   35 1   
    35   26   27 1   
    36   26   36 1   
    37   26   37 1   
    38   27   38 1   
    39   27   39 1   
    40   27   40 1   
    41   41   42 1   
    42   41   49 1   
    43   42   43 1   
    44   42   45 1   
    45   42   50 1   
    46   43   44 2   
    47   43   53 1   
    48   45   46 1   
    49   45   51 1   
    50   45   52 1   
    51   46   47 1   
    52   46   48 1   
    53   53   54 1   
    54   53   57 1   
    55   54   55 1   
    56   54   58 1   
    57   54   59 1   
    58   55   56 2   
    59   55   60 1   
    60   60   61 1   
    61   60   68 1   
    62   61   62 1   
    63   61   64 1   
    64   61   69 1   
    65   62   63 2   
    66   62   74 1   
    67   64   65 1   
    68   64   70 1   
    69   64   71 1   
    70   65   66 1   
    71   65   67 2   
    72   66   72 1   
    73   66   73 1   
    74   74   75 1   
    75   74   78 1   
    76   75   76 1   
    77   75   79 1   
    78   75   80 1   
    79   76   77 2   
    80   76   81 1   
    81   81   82 1   
    82   81   93 1   
    83   82   83 1   
    84   82   85 1   
    85   82   94 1   
    86   83   84 2   
    87   83  102 1   
    88   85   86 1   
    89   85   95 1   
    90   85   96 1   
    91   86   87 ar  
    92   86   88 ar  
    93   87   89 ar  
    94   87   97 1   
    95   88   90 ar  
    96   88   98 1   
    97   89   91 ar  
    98   89   99 1   
    99   90   91 ar  
   100   90  100 1   
   101   91   92 1   
   102   92  101 1   
   103  102  103 1   
   104  102  110 1   
   105  103  104 1   
   106  103  106 1   
   107  103  111 1   
   108  104  105 2   
   109  104  121 1   
   110  106  107 1   
   111  106  108 1   
   112  106  112 1   
   113  107  109 1   
   114  107  113 1   
   115  107  114 1   
   116  108  115 1   
   117  108  116 1   
   118  108  117 1   
   119  109  118 1   
   120  109  119 1   
   121  109  120 1   
   122  121  122 1   
   123  121  127 1   
   124  122  123 1   
   125  122  125 1   
   126  122  128 1   
   127  123  124 2   
   128  123  132 1   
   129  125  126 1   
   130  125  129 1   
   131  125  130 1   
   132  126  131 1   
   133  132  133 1   
   134  132  137 1   
   135  133  134 1   
   136  133  136 1   
   137  133  138 1   
   138  134  135 2   
   139  134  142 1   
   140  136  139 1   
   141  136  140 1   
   142  136  141 1   
   143  142  143 1   
   144  142  147 1   
   145  143  144 1   
   146  143  146 1   
   147  143  148 1   
   148  144  145 2   
   149  144  152 1   
   150  146  149 1   
   151  146  150 1   
   152  146  151 1   
   153  152  153 1   
   154  152  161 1   
   155  153  154 1   
   156  153  156 1   
   157  153  162 1   
   158  154  155 2   
   159  154  167 1   
   160  156  157 1   
   161  156  163 1   
   162  156  164 1   
   163  157  158 1   
   164  157  165 1   
   165  157  166 1   
   166  158  159 1   
   167  158  160 1   
   168  167  168 1   
   169  167  172 1   
   170  168  169 1   
   171  168  170 1   
   172  168  171 1   
   173  174  175 1   
   174  174  176 1   
   175  177  178 1   
   176  177  179 1   
@<TRIPOS>SUBSTRUCTURE
     1 MOL         1 TEMP              0 ****  ****    0 ROOT
