@<TRIPOS>MOLECULE
MOL
  175   173     1     0     0
SMALL
resp


@<TRIPOS>ATOM
      1 C1          0.4130    3.6610    5.7980 c3        1 MOL     -0.443021
      2 C2         -0.2340    3.5390    4.4280 c         1 MOL      0.772618
      3 O1          0.5050    3.5080    3.4380 o         1 MOL     -0.596215
      4 H1          0.6370    2.6670    6.1840 hc        1 MOL      0.111787
      5 H2          1.3350    4.2360    5.7150 hc        1 MOL      0.111787
      6 H3         -0.2720    4.1670    6.4790 hc        1 MOL      0.111787
      7 N1         -1.5240    3.3720    4.3130 n         1 MOL     -0.752205
      8 C3         -2.1110    3.3230    3.0110 c3        1 MOL      0.430054
      9 C4         -2.0400    4.5650    2.1200 c         1 MOL      0.503945
     10 O2         -2.1930    5.6670    2.6960 o         1 MOL     -0.575591
     11 C5         -3.4930    2.8820    3.2280 c3        1 MOL     -0.276012
     12 C6         -4.1930    2.5200    1.9050 c         1 MOL      0.543276
     13 O3         -5.3470    3.0190    1.6650 o         1 MOL     -0.600943
     14 O4         -3.5250    1.9030    0.9820 o         1 MOL     -0.600943
     15 H4         -2.1170    3.4900    5.1240 hn        1 MOL      0.348603
     16 H5         -1.5990    2.5880    2.3960 h1        1 MOL     -0.010247
     17 H6         -4.0760    3.5780    3.8270 hc        1 MOL      0.056339
     18 H7         -3.4310    1.8870    3.6550 hc        1 MOL      0.056339
     19 N2         -1.9940    4.3470    0.7700 n         1 MOL     -0.402572
     20 C7         -2.0270    5.4490   -0.2510 c3        1 MOL      0.194876
     21 C8         -2.9160    5.1530   -1.5260 c         1 MOL      0.427400
     22 O5         -2.9820    6.0170   -2.4390 o         1 MOL     -0.540204
     23 C9         -0.5710    5.7800   -0.7480 c3        1 MOL     -0.210141
     24 H8         -1.7070    3.4360    0.4540 hn        1 MOL      0.275047
     25 H9         -2.3800    6.3650    0.2450 h1        1 MOL      0.027864
     26 H10        -0.5970    6.6020   -1.4520 hc        1 MOL      0.053003
     27 H11         0.1170    5.9700    0.0890 hc        1 MOL      0.053003
     28 H12        -0.1210    4.9030   -1.2100 hc        1 MOL      0.053003
     29 N3         -3.6550    4.0030   -1.4450 n         1 MOL     -0.283273
     30 C10        -4.6380    3.6440   -2.5260 c3        1 MOL     -0.103009
     31 C11        -5.8210    2.8310   -2.2460 c         1 MOL      0.408526
     32 O6         -6.5060    2.3710   -3.2010 o         1 MOL     -0.573518
     33 C12        -3.8910    3.0170   -3.7390 c3        1 MOL      0.125456
     34 C13        -3.0800    1.7560   -3.3720 c         1 MOL      0.688850
     35 O7         -2.4070    1.4220   -4.3410 o         1 MOL     -0.694542
     36 O8         -3.1020    1.2040   -2.2260 o         1 MOL     -0.694542
     37 H13        -3.6240    3.4380   -0.6070 hn        1 MOL      0.162034
     38 H14        -5.0220    4.5970   -2.8820 h1        1 MOL      0.075850
     39 H15        -3.1870    3.7470   -4.1350 hc        1 MOL     -0.018543
     40 H16        -4.5410    2.8450   -4.5990 hc        1 MOL     -0.018543
     41 N4         -5.9870    2.4280   -1.0350 n         1 MOL     -0.114647
     42 C14        -7.1190    1.6570   -0.5860 c3        1 MOL     -0.277501
     43 C15        -7.0650    0.1360   -0.9150 c         1 MOL      0.475345
     44 O9         -8.0680   -0.5680   -0.6390 o         1 MOL     -0.606318
     45 H17        -5.3970    2.7690   -0.3030 hn        1 MOL      0.178361
     46 H18        -7.9510    2.1110   -1.1260 h1        1 MOL      0.132210
     47 H19        -7.2570    1.7430    0.4950 h1        1 MOL      0.132210
     48 N5         -6.0500   -0.4590   -1.5440 n         1 MOL     -0.139870
     49 C16        -6.1140   -1.7940   -2.1190 c3        1 MOL     -0.005317
     50 C17        -6.1900   -2.9680   -1.1090 c         1 MOL      0.430380
     51 O10        -5.9120   -4.1130   -1.4590 o         1 MOL     -0.521861
     52 C18        -4.9770   -1.8470   -3.2020 c3        1 MOL      0.083471
     53 C19        -3.5680   -2.0790   -2.7010 c         1 MOL      0.445379
     54 N6         -2.6880   -2.3960   -3.5820 n         1 MOL     -0.605104
     55 O11        -3.1810   -2.1580   -1.5790 o         1 MOL     -0.444714
     56 H20        -5.2280    0.1000   -1.7050 hn        1 MOL      0.110639
     57 H21        -7.0260   -1.8870   -2.7130 h1        1 MOL      0.080520
     58 H22        -5.0460   -0.9630   -3.8250 hc        1 MOL      0.001517
     59 H23        -5.2080   -2.6660   -3.8740 hc        1 MOL      0.001517
     60 H24        -2.7680   -2.5050   -4.5810 hn        1 MOL      0.335067
     61 H25        -1.7750   -2.5080   -3.1820 hn        1 MOL      0.335067
     62 N7         -6.4550   -2.7630    0.1560 n         1 MOL     -0.242355
     63 C20        -6.5940   -3.8700    1.1030 c3        1 MOL     -0.146487
     64 C21        -5.1970   -4.3880    1.6170 c         1 MOL      0.528108
     65 O12        -5.1290   -5.2670    2.4830 o         1 MOL     -0.578903
     66 H26        -6.8700   -1.8800    0.4190 hn        1 MOL      0.247647
     67 H27        -6.9780   -4.8280    0.7470 h1        1 MOL      0.100788
     68 H28        -7.1510   -3.7680    2.0330 h1        1 MOL      0.100788
     69 N8         -4.0500   -3.9050    1.0620 n         1 MOL     -0.249408
     70 C22        -2.7190   -4.5250    1.2980 c3        1 MOL     -0.199135
     71 C23        -1.6080   -3.4960    1.4000 c         1 MOL      0.810476
     72 O13        -1.6400   -2.4280    0.7860 o         1 MOL     -0.599520
     73 C24        -2.4020   -5.5290    0.1400 c3        1 MOL      0.582796
     74 C25        -3.3650   -6.7340    0.0160 c3        1 MOL     -0.507327
     75 O14        -2.4900   -4.9570   -1.1670 oh        1 MOL     -0.597367
     76 H29        -4.1350   -3.2140    0.3310 hn        1 MOL      0.038767
     77 H30        -2.7650   -5.1730    2.1730 h1        1 MOL      0.100094
     78 H31        -1.3870   -5.9110    0.2940 h1        1 MOL     -0.061277
     79 H32        -2.4180   -4.0020   -1.0680 ho        1 MOL      0.361276
     80 H33        -2.8620   -7.4640   -0.6090 hc        1 MOL      0.120679
     81 H34        -3.4610   -7.0900    1.0470 hc        1 MOL      0.120679
     82 H35        -4.3370   -6.4020   -0.3380 hc        1 MOL      0.120679
     83 N9         -0.5450   -3.7290    2.1640 n         1 MOL     -0.825739
     84 C26         0.7030   -2.8760    2.0500 c3        1 MOL      0.138996
     85 C27         1.3830   -3.1340    0.7030 c         1 MOL      0.374222
     86 O15         1.3050   -4.2200    0.2070 o         1 MOL     -0.509727
     87 C28         1.7620   -3.1820    3.2080 c3        1 MOL      0.281096
     88 C29         1.0810   -3.3320    4.5830 c3        1 MOL      0.010312
     89 C30         2.8530   -2.0860    3.2490 c3        1 MOL     -0.415139
     90 C31         2.0210   -3.8870    5.6250 c3        1 MOL     -0.076024
     91 H36        -0.3970   -4.5440    2.7320 hn        1 MOL      0.354794
     92 H37         0.4100   -1.8240    2.1030 h1        1 MOL      0.004381
     93 H38         2.2610   -4.1200    2.9490 hc        1 MOL     -0.032412
     94 H39         0.3200   -4.1210    4.5090 hc        1 MOL      0.003283
     95 H40         0.7050   -2.3600    4.9000 hc        1 MOL      0.003283
     96 H41         3.3710   -2.1720    2.2900 hc        1 MOL      0.073895
     97 H42         2.4120   -1.1020    3.4130 hc        1 MOL      0.073895
     98 H43         3.5800   -2.2560    4.0350 hc        1 MOL      0.073895
     99 H44         1.4710   -4.2520    6.5040 hc        1 MOL      0.009124
    100 H45         2.5560   -4.7290    5.1760 hc        1 MOL      0.009124
    101 H46         2.7380   -3.1570    5.9880 hc        1 MOL      0.009124
    102 N10         1.9290   -2.0520    0.0770 n         1 MOL     -0.231277
    103 C32         2.6820   -2.0410   -1.2230 c3        1 MOL      0.102774
    104 C33         4.1510   -1.4950   -1.0240 c         1 MOL      0.235363
    105 O16         4.3680   -0.8790    0.0320 o         1 MOL     -0.283581
    106 C34         1.9480   -1.2420   -2.3300 c3        1 MOL     -0.275435
    107 C35         0.4820   -1.7010   -2.3890 c         1 MOL      0.809199
    108 O17         0.1810   -2.5610   -3.1830 o         1 MOL     -0.716846
    109 O18        -0.3560   -0.9980   -1.7810 o         1 MOL     -0.716846
    110 H47         1.9300   -1.2200    0.6620 hn        1 MOL      0.329005
    111 H48         2.7170   -3.0850   -1.5340 h1        1 MOL      0.039712
    112 H49         2.4810   -1.4190   -3.2530 hc        1 MOL      0.073021
    113 H50         2.0310   -0.1900   -2.0640 hc        1 MOL      0.073021
    114 N11         5.0260   -1.7930   -1.9890 n         1 MOL     -0.530937
    115 C36         6.4160   -1.4480   -1.6580 c3        1 MOL      0.321430
    116 C37         6.5750    0.0740   -1.3770 c         1 MOL      0.336263
    117 O19         7.3220    0.3450   -0.4480 o         1 MOL     -0.448154
    118 C38         7.3840   -1.8310   -2.7240 c3        1 MOL     -0.240578
    119 C39         8.8020   -1.7230   -2.1330 ca        1 MOL     -0.033389
    120 C40         9.6460   -0.6520   -2.6230 ca        1 MOL     -0.075902
    121 C41         9.1660   -2.5910   -1.0910 ca        1 MOL     -0.075902
    122 C42        10.9120   -0.5600   -2.1440 ca        1 MOL     -0.149221
    123 C43        10.5100   -2.3770   -0.6230 ca        1 MOL     -0.149221
    124 C44        11.3870   -1.3980   -1.0640 ca        1 MOL     -0.103041
    125 H51         4.7700   -2.5090   -2.6530 hn        1 MOL      0.342666
    126 H52         6.7630   -1.9090   -0.7340 h1        1 MOL      0.050421
    127 H53         7.1830   -1.1650   -3.5640 hc        1 MOL      0.086029
    128 H54         7.1700   -2.8020   -3.1770 hc        1 MOL      0.086029
    129 H55         9.2310    0.0130   -3.3550 ha        1 MOL      0.107723
    130 H56         8.6240   -3.4480   -0.7070 ha        1 MOL      0.107723
    131 H57        11.4850    0.2780   -2.5030 ha        1 MOL      0.109491
    132 H58        10.8050   -2.9670    0.2290 ha        1 MOL      0.109491
    133 H59        12.3400   -1.2350   -0.5690 ha        1 MOL      0.113128
    134 N12         5.7970    1.0200   -1.9530 n         1 MOL     -0.122393
    135 C45         6.0010    2.4400   -1.5900 c3        1 MOL     -0.005482
    136 C46         5.5310    2.8420   -0.2090 c         1 MOL      0.239635
    137 O20         5.9990    3.8740    0.2630 o         1 MOL     -0.491271
    138 C47         5.1230    3.1800   -2.6050 c3        1 MOL      0.064162
    139 C48         5.2090    2.3300   -3.8740 c3        1 MOL     -0.095570
    140 C49         5.0560    0.9670   -3.1780 c3        1 MOL      0.014590
    141 H60         7.0160    2.8470   -1.6850 h1        1 MOL      0.079747
    142 H61         4.1080    3.2040   -2.2010 hc        1 MOL      0.014964
    143 H62         5.4800    4.1650   -2.8880 hc        1 MOL      0.014964
    144 H63         4.4170    2.3540   -4.6310 hc        1 MOL      0.046419
    145 H64         6.1620    2.4770   -4.3760 hc        1 MOL      0.046419
    146 H65         4.0420    0.7740   -2.8480 h1        1 MOL      0.021319
    147 H66         5.3980    0.0900   -3.7350 h1        1 MOL      0.021319
    148 N13         4.6080    2.0600    0.3710 n         1 MOL     -0.052452
    149 C50         4.0380    2.1990    1.7410 c3        1 MOL     -0.084665
    150 C51         4.8960    1.5200    2.8080 c         1 MOL      0.377115
    151 O21         5.0480    1.9090    3.9550 o         1 MOL     -0.548391
    152 C52         2.6490    1.6020    1.7430 c3        1 MOL      0.038260
    153 C53         1.7430    2.3190    0.7600 c3        1 MOL     -0.674840
    154 C54         0.4340    1.4980    0.5340 c         1 MOL      0.828032
    155 O22        -0.4510    1.9060   -0.2810 o         1 MOL     -0.773118
    156 O23         0.1560    0.3870    1.0550 o         1 MOL     -0.773118
    157 H67         4.3000    1.1850   -0.0390 hn        1 MOL      0.203324
    158 H68         4.0410    3.2620    2.0000 h1        1 MOL      0.119122
    159 H69         2.2590    1.7160    2.7530 hc        1 MOL      0.084243
    160 H70         2.6480    0.5340    1.5370 hc        1 MOL      0.084243
    161 H71         2.0600    2.3670   -0.2850 hc        1 MOL      0.214974
    162 H72         1.5380    3.2540    1.2690 hc        1 MOL      0.214974
    163 N14         5.7080    0.5520    2.3380 n         1 MOL      0.041933
    164 C55         6.6980   -0.1500    3.1340 c3        1 MOL     -0.260009
    165 H73         6.3190   -1.1370    3.3970 h1        1 MOL      0.090118
    166 H74         7.6190   -0.2550    2.5600 h1        1 MOL      0.090118
    167 H75         6.9000    0.4150    4.0450 h1        1 MOL      0.090118
    168 H76         5.5940    0.2990    1.3720 hn        1 MOL     -0.025619
    169 Ca1        -2.1040   -0.0580   -0.1290 Ca        1 MOL      1.651249
    170 O24        -1.7540   -0.1440    2.7190 oh        1 MOL     -0.754198
    171 H77        -1.7820    0.0250    3.6600 ho        1 MOL      0.371673
    172 H78        -0.8390   -0.0480    2.4860 ho        1 MOL      0.371673
    173 O25        -4.4890   -0.4300    1.2700 oh        1 MOL     -0.754198
    174 H79        -4.5550    0.4940    1.0180 ho        1 MOL      0.371673
    175 H80        -4.9540   -0.4850    2.1060 ho        1 MOL      0.371673
@<TRIPOS>BOND
     1    1    2 1   
     2    1    4 1   
     3    1    5 1   
     4    1    6 1   
     5    2    3 2   
     6    2    7 1   
     7    7    8 1   
     8    7   15 1   
     9    8    9 1   
    10    8   11 1   
    11    8   16 1   
    12    9   10 2   
    13    9   19 1   
    14   11   12 1   
    15   11   17 1   
    16   11   18 1   
    17   12   13 1   
    18   12   14 1   
    19   19   20 1   
    20   19   24 1   
    21   20   21 1   
    22   20   23 1   
    23   20   25 1   
    24   21   22 2   
    25   21   29 1   
    26   23   26 1   
    27   23   27 1   
    28   23   28 1   
    29   29   30 1   
    30   29   37 1   
    31   30   31 1   
    32   30   33 1   
    33   30   38 1   
    34   31   32 2   
    35   31   41 1   
    36   33   34 1   
    37   33   39 1   
    38   33   40 1   
    39   34   35 1   
    40   34   36 1   
    41   41   42 1   
    42   41   45 1   
    43   42   43 1   
    44   42   46 1   
    45   42   47 1   
    46   43   44 2   
    47   43   48 1   
    48   48   49 1   
    49   48   56 1   
    50   49   50 1   
    51   49   52 1   
    52   49   57 1   
    53   50   51 2   
    54   50   62 1   
    55   52   53 1   
    56   52   58 1   
    57   52   59 1   
    58   53   54 1   
    59   53   55 2   
    60   54   60 1   
    61   54   61 1   
    62   62   63 1   
    63   62   66 1   
    64   63   64 1   
    65   63   67 1   
    66   63   68 1   
    67   64   65 2   
    68   64   69 1   
    69   69   70 1   
    70   69   76 1   
    71   70   71 1   
    72   70   73 1   
    73   70   77 1   
    74   71   72 2   
    75   71   83 1   
    76   73   74 1   
    77   73   75 1   
    78   73   78 1   
    79   74   80 1   
    80   74   81 1   
    81   74   82 1   
    82   75   79 1   
    83   83   84 1   
    84   83   91 1   
    85   84   85 1   
    86   84   87 1   
    87   84   92 1   
    88   85   86 2   
    89   85  102 1   
    90   87   88 1   
    91   87   89 1   
    92   87   93 1   
    93   88   90 1   
    94   88   94 1   
    95   88   95 1   
    96   89   96 1   
    97   89   97 1   
    98   89   98 1   
    99   90   99 1   
   100   90  100 1   
   101   90  101 1   
   102  102  103 1   
   103  102  110 1   
   104  103  104 1   
   105  103  106 1   
   106  103  111 1   
   107  104  105 2   
   108  104  114 1   
   109  106  107 1   
   110  106  112 1   
   111  106  113 1   
   112  107  108 1   
   113  107  109 1   
   114  114  115 1   
   115  114  125 1   
   116  115  116 1   
   117  115  118 1   
   118  115  126 1   
   119  116  117 2   
   120  116  134 1   
   121  118  119 1   
   122  118  127 1   
   123  118  128 1   
   124  119  120 ar  
   125  119  121 ar  
   126  120  122 ar  
   127  120  129 1   
   128  121  123 ar  
   129  121  130 1   
   130  122  124 ar  
   131  122  131 1   
   132  123  124 ar  
   133  123  132 1   
   134  124  133 1   
   135  134  135 1   
   136  134  140 1   
   137  135  136 1   
   138  135  138 1   
   139  135  141 1   
   140  136  137 2   
   141  136  148 1   
   142  138  139 1   
   143  138  142 1   
   144  138  143 1   
   145  139  140 1   
   146  139  144 1   
   147  139  145 1   
   148  140  146 1   
   149  140  147 1   
   150  148  149 1   
   151  148  157 1   
   152  149  150 1   
   153  149  152 1   
   154  149  158 1   
   155  150  151 2   
   156  150  163 1   
   157  152  153 1   
   158  152  159 1   
   159  152  160 1   
   160  153  154 1   
   161  153  161 1   
   162  153  162 1   
   163  154  155 1   
   164  154  156 1   
   165  163  164 1   
   166  163  168 1   
   167  164  165 1   
   168  164  166 1   
   169  164  167 1   
   170  170  171 1   
   171  170  172 1   
   172  173  174 1   
   173  173  175 1   
@<TRIPOS>SUBSTRUCTURE
     1 MOL         1 TEMP              0 ****  ****    0 ROOT
