@<TRIPOS>MOLECULE
MOL
  175   173     1     0     0
SMALL
resp


@<TRIPOS>ATOM
      1 C1          0.4380    4.4080    5.3780 c3        1 MOL     -0.398105
      2 C2          0.0090    4.2940    3.9380 c         1 MOL      0.720326
      3 O1          0.6710    4.7310    2.9910 o         1 MOL     -0.532444
      4 H1          0.1220    5.3720    5.7750 hc        1 MOL      0.096845
      5 H2         -0.0210    3.6070    5.9590 hc        1 MOL      0.096845
      6 H3          1.5230    4.3270    5.4410 hc        1 MOL      0.096845
      7 N1         -1.2620    3.9300    3.7590 n         1 MOL     -0.577788
      8 C3         -1.8890    3.6220    2.5080 c3        1 MOL     -0.002317
      9 C4         -2.0170    4.8120    1.6020 c         1 MOL      0.616896
     10 O2         -2.3180    5.9520    2.0170 o         1 MOL     -0.575201
     11 C5         -3.2960    3.0590    2.8720 c3        1 MOL     -0.371971
     12 C6         -3.9060    2.1730    1.8220 c         1 MOL      0.790626
     13 O3         -4.9490    1.5940    2.0720 o         1 MOL     -0.692330
     14 O4         -3.3630    1.9270    0.7650 o         1 MOL     -0.692330
     15 H4         -1.8350    3.9770    4.6000 hn        1 MOL      0.324308
     16 H5         -1.2470    2.8380    2.1000 h1        1 MOL      0.100279
     17 H6         -3.9310    3.9230    3.0650 hc        1 MOL      0.091928
     18 H7         -3.1810    2.5470    3.8320 hc        1 MOL      0.091928
     19 N2         -1.9080    4.4820    0.3000 n         1 MOL     -0.457108
     20 C7         -2.0850    5.3480   -0.8880 c3        1 MOL      0.232374
     21 C8         -3.3160    4.9750   -1.6750 c         1 MOL      0.503925
     22 O5         -3.6380    5.7570   -2.6050 o         1 MOL     -0.582495
     23 C9         -0.7920    5.2850   -1.7210 c3        1 MOL     -0.306447
     24 H8         -1.7490    3.5370   -0.0170 hn        1 MOL      0.332345
     25 H9         -2.2180    6.3610   -0.4970 h1        1 MOL      0.013504
     26 H10        -0.1040    5.7380   -1.0040 hc        1 MOL      0.082865
     27 H11        -0.5510    4.2730   -2.0530 hc        1 MOL      0.082865
     28 H12        -0.7920    5.8790   -2.6400 hc        1 MOL      0.082865
     29 N3         -3.9480    3.7960   -1.4880 n         1 MOL     -0.679140
     30 C10        -4.8170    3.3810   -2.6090 c3        1 MOL      0.364092
     31 C11        -5.9800    2.4860   -2.2340 c         1 MOL      0.189526
     32 O6         -6.8430    2.2020   -3.0910 o         1 MOL     -0.506247
     33 C12        -4.0780    2.5580   -3.6290 c3        1 MOL     -0.009828
     34 C13        -3.2820    1.3670   -3.0700 c         1 MOL      0.657286
     35 O7         -3.7150    0.7570   -2.0460 o         1 MOL     -0.677823
     36 O8         -2.3580    0.8260   -3.7140 o         1 MOL     -0.677823
     37 H13        -3.6340    3.1460   -0.7930 hn        1 MOL      0.358602
     38 H14        -5.2520    4.1560   -3.2430 h1        1 MOL      0.043321
     39 H15        -3.4150    3.2260   -4.1730 hc        1 MOL     -0.014978
     40 H16        -4.8020    2.2120   -4.3610 hc        1 MOL     -0.014978
     41 N4         -6.0930    2.0410   -0.9370 n         1 MOL     -0.070458
     42 C14        -7.2790    1.3100   -0.5180 c3        1 MOL     -0.352843
     43 C15        -7.3100   -0.1180   -1.0980 c         1 MOL      0.582564
     44 O9         -8.3700   -0.7090   -1.0200 o         1 MOL     -0.576831
     45 H17        -5.3420    2.2510   -0.2960 hn        1 MOL      0.140538
     46 H18        -8.1330    1.9380   -0.7590 h1        1 MOL      0.143908
     47 H19        -7.1650    1.1450    0.5520 h1        1 MOL      0.143908
     48 N5         -6.2520   -0.7300   -1.6390 n         1 MOL     -0.391035
     49 C16        -6.2300   -2.0760   -2.3220 c3        1 MOL      0.097556
     50 C17        -6.4030   -3.1450   -1.2670 c         1 MOL      0.447049
     51 O10        -7.3090   -3.9340   -1.4290 o         1 MOL     -0.548289
     52 C18        -4.9620   -2.1200   -3.0730 c3        1 MOL     -0.265136
     53 C19        -3.7180   -2.6320   -2.4180 c         1 MOL      0.555399
     54 N6         -3.1660   -3.7260   -2.9070 n         1 MOL     -0.695888
     55 O11        -3.4140   -2.1430   -1.3470 o         1 MOL     -0.444483
     56 H20        -5.3850   -0.2270   -1.7850 hn        1 MOL      0.353770
     57 H21        -6.9790   -2.1380   -3.1070 h1        1 MOL      0.084274
     58 H22        -4.7240   -1.1120   -3.4200 hc        1 MOL      0.079701
     59 H23        -5.2580   -2.7420   -3.9090 hc        1 MOL      0.079701
     60 H24        -3.3760   -3.9460   -3.8720 hn        1 MOL      0.353908
     61 H25        -2.2380   -3.8340   -2.5230 hn        1 MOL      0.353908
     62 N7         -5.7430   -3.0420   -0.0580 n         1 MOL      0.005601
     63 C20        -6.0890   -3.8940    1.0970 c3        1 MOL     -0.195808
     64 C21        -4.8770   -4.1870    1.9490 c         1 MOL      0.576637
     65 O12        -5.0420   -4.6660    3.0910 o         1 MOL     -0.606284
     66 H26        -5.0030   -2.3530   -0.0590 hn        1 MOL     -0.098096
     67 H27        -6.4110   -4.8280    0.6280 h1        1 MOL      0.099305
     68 H28        -6.8310   -3.4740    1.7780 h1        1 MOL      0.099305
     69 N8         -3.6730   -3.9170    1.3980 n         1 MOL     -0.220828
     70 C22        -2.3180   -4.4060    1.7740 c3        1 MOL     -0.073784
     71 C23        -1.3580   -3.2610    1.7610 c         1 MOL      0.497097
     72 O13        -1.4260   -2.3610    0.8980 o         1 MOL     -0.482497
     73 C24        -1.6810   -5.2750    0.6450 c3        1 MOL      0.434624
     74 C25        -2.1780   -6.6850    0.7770 c3        1 MOL     -0.405901
     75 O14        -1.8050   -4.8950   -0.6130 oh        1 MOL     -0.451599
     76 H29        -3.8890   -3.3580    0.5780 hn        1 MOL      0.075778
     77 H30        -2.1880   -4.8700    2.7460 h1        1 MOL      0.080800
     78 H31        -0.6370   -5.4150    0.9390 h1        1 MOL     -0.012327
     79 H32        -1.6640   -3.9450   -0.5520 ho        1 MOL      0.226822
     80 H33        -2.0770   -7.2380    1.7120 hc        1 MOL      0.089882
     81 H34        -3.2630   -6.6370    0.5980 hc        1 MOL      0.089882
     82 H35        -1.7170   -7.1910   -0.0690 hc        1 MOL      0.089882
     83 N9         -0.3770   -3.2990    2.5830 n         1 MOL     -0.519096
     84 C26         0.8400   -2.4660    2.4800 c3        1 MOL     -0.026589
     85 C27         1.6880   -2.9100    1.3370 c         1 MOL      0.476187
     86 O15         2.3660   -3.9130    1.3700 o         1 MOL     -0.568511
     87 C28         1.5860   -2.4310    3.8130 c3        1 MOL      0.190238
     88 C29         0.9030   -1.5600    4.9230 c3        1 MOL     -0.062216
     89 C30         2.9880   -1.7230    3.6140 c3        1 MOL     -0.159601
     90 C31         1.4470   -1.7960    6.3930 c3        1 MOL     -0.081148
     91 H36        -0.5500   -3.8530    3.4100 hn        1 MOL      0.295722
     92 H37         0.3840   -1.4950    2.2760 h1        1 MOL      0.020893
     93 H38         1.8590   -3.4010    4.2370 hc        1 MOL     -0.009278
     94 H39        -0.1810   -1.6670    4.8590 hc        1 MOL      0.001942
     95 H40         1.0560   -0.5120    4.6560 hc        1 MOL      0.001942
     96 H41         2.8620   -0.7390    3.1460 hc        1 MOL      0.036406
     97 H42         3.4910   -1.6120    4.5760 hc        1 MOL      0.036406
     98 H43         3.6490   -2.3070    2.9870 hc        1 MOL      0.036406
     99 H44         1.1850   -0.9630    7.0530 hc        1 MOL      0.021893
    100 H45         1.1190   -2.7020    6.9050 hc        1 MOL      0.021893
    101 H46         2.5430   -1.8120    6.3950 hc        1 MOL      0.021893
    102 N10         1.7140   -2.0070    0.3370 n         1 MOL     -0.148432
    103 C32         2.6140   -2.1680   -0.8190 c3        1 MOL      0.000809
    104 C33         4.0350   -1.6010   -0.5160 c         1 MOL      0.352511
    105 O16         4.2330   -0.7160    0.3630 o         1 MOL     -0.317052
    106 C34         1.8710   -1.6750   -2.1020 c3        1 MOL     -0.289707
    107 C35         0.4080   -2.0000   -2.1380 c         1 MOL      0.792081
    108 O17        -0.4230   -1.2420   -1.5820 o         1 MOL     -0.693447
    109 O18         0.0780   -2.9590   -2.8030 o         1 MOL     -0.693447
    110 H47         1.3470   -1.0890    0.5530 hn        1 MOL      0.303514
    111 H48         2.7030   -3.2460   -0.9570 h1        1 MOL      0.073225
    112 H49         2.3650   -2.1430   -2.9480 hc        1 MOL      0.085587
    113 H50         2.0380   -0.5900   -2.1170 hc        1 MOL      0.085587
    114 N11         5.0530   -2.0140   -1.2820 n         1 MOL     -0.486775
    115 C36         6.4400   -1.6830   -1.0130 c3        1 MOL      0.265301
    116 C37         6.6940   -0.1470   -1.2180 c         1 MOL      0.340757
    117 O19         7.3260    0.5150   -0.3930 o         1 MOL     -0.484557
    118 C38         7.4250   -2.4190   -1.9510 c3        1 MOL     -0.262342
    119 C39         8.9180   -2.0640   -1.7390 ca        1 MOL      0.116824
    120 C40         9.5370   -1.1760   -2.6440 ca        1 MOL     -0.193988
    121 C41         9.6550   -2.4510   -0.6490 ca        1 MOL     -0.193988
    122 C42        10.8430   -0.7000   -2.4290 ca        1 MOL     -0.090680
    123 C43        10.9220   -1.9620   -0.4140 ca        1 MOL     -0.090680
    124 C44        11.5770   -1.1070   -1.3020 ca        1 MOL     -0.107957
    125 H51         4.8680   -2.6920   -2.0090 hn        1 MOL      0.290065
    126 H52         6.7060   -2.0840   -0.0400 h1        1 MOL      0.068981
    127 H53         7.1420   -2.1860   -2.9810 hc        1 MOL      0.081902
    128 H54         7.3450   -3.4910   -1.8060 hc        1 MOL      0.081902
    129 H55         8.9420   -0.7770   -3.4520 ha        1 MOL      0.121996
    130 H56         9.3340   -3.2230    0.0390 ha        1 MOL      0.121996
    131 H57        11.2270    0.0760   -3.0760 ha        1 MOL      0.104152
    132 H58        11.4550   -2.2180    0.4950 ha        1 MOL      0.104152
    133 H59        12.5810   -0.7750   -1.1240 ha        1 MOL      0.102077
    134 N12         5.9830    0.4990   -2.1880 n         1 MOL     -0.057476
    135 C45         5.8730    1.9770   -2.2970 c3        1 MOL      0.072408
    136 C46         5.2020    2.6870   -1.1070 c         1 MOL      0.346373
    137 O20         5.4190    3.8580   -1.0920 o         1 MOL     -0.532025
    138 C47         5.2080    2.3300   -3.5710 c3        1 MOL     -0.020019
    139 C48         5.3710    1.1350   -4.4410 c3        1 MOL     -0.033485
    140 C49         5.3490   -0.0880   -3.4360 c3        1 MOL     -0.003841
    141 H60         6.9100    2.2890   -2.2830 h1        1 MOL      0.043063
    142 H61         4.1740    2.5700   -3.3330 hc        1 MOL      0.040108
    143 H62         5.6830    3.2110   -4.0020 hc        1 MOL      0.040108
    144 H63         4.5480    1.0790   -5.1550 hc        1 MOL      0.014065
    145 H64         6.3430    1.1300   -4.9510 hc        1 MOL      0.014065
    146 H65         4.3010   -0.3740   -3.3060 h1        1 MOL      0.023799
    147 H66         5.9220   -0.8910   -3.8950 h1        1 MOL      0.023799
    148 N13         4.5280    2.0120   -0.1830 n         1 MOL     -0.203624
    149 C50         4.0550    2.6310    1.1450 c3        1 MOL     -0.066430
    150 C51         4.9100    2.1240    2.3070 c         1 MOL      0.466566
    151 O21         4.8360    2.7520    3.3990 o         1 MOL     -0.559554
    152 C52         2.5730    2.1990    1.2750 c3        1 MOL      0.298841
    153 C53         1.6090    2.3090    0.0040 c3        1 MOL     -0.106394
    154 C54         0.2550    1.7340    0.1370 c         1 MOL      0.442824
    155 O22        -0.6160    1.9130   -0.7570 o         1 MOL     -0.652720
    156 O23         0.0360    0.8030    0.9310 o         1 MOL     -0.652720
    157 H67         4.4950    1.0010   -0.2440 hn        1 MOL      0.069433
    158 H68         4.0950    3.7240    1.0660 h1        1 MOL      0.106544
    159 H69         2.2600    2.8710    2.0660 hc        1 MOL     -0.081877
    160 H70         2.5120    1.1370    1.5330 hc        1 MOL     -0.081877
    161 H71         2.0680    1.7670   -0.8220 hc        1 MOL      0.053726
    162 H72         1.5280    3.3650   -0.2460 hc        1 MOL      0.053726
    163 N14         5.6750    0.9910    2.2250 n         1 MOL     -0.140463
    164 C55         6.6520    0.6620    3.2480 c3        1 MOL     -0.115963
    165 H73         6.5550    1.3590    4.0800 h1        1 MOL      0.056490
    166 H74         6.4790   -0.3540    3.6030 h1        1 MOL      0.056490
    167 H75         7.6560    0.7350    2.8290 h1        1 MOL      0.056490
    168 H76         5.4680    0.2810    1.5430 hn        1 MOL      0.116237
    169 Ca1        -2.1820   -0.0720   -0.1460 Ca        1 MOL      1.577005
    170 O24        -2.1420   -0.0940    2.7340 oh        1 MOL     -0.735954
    171 H77        -2.6550   -0.2380    3.5370 ho        1 MOL      0.385428
    172 H78        -1.3480    0.3510    3.0240 ho        1 MOL      0.385428
    173 O25        -4.4680   -0.8220    1.1340 oh        1 MOL     -0.735954
    174 H79        -4.5970    0.1180    1.1800 ho        1 MOL      0.385428
    175 H80        -4.9180   -1.1710    1.8980 ho        1 MOL      0.385428
@<TRIPOS>BOND
     1    1    2 1   
     2    1    4 1   
     3    1    5 1   
     4    1    6 1   
     5    2    3 2   
     6    2    7 1   
     7    7    8 1   
     8    7   15 1   
     9    8    9 1   
    10    8   11 1   
    11    8   16 1   
    12    9   10 2   
    13    9   19 1   
    14   11   12 1   
    15   11   17 1   
    16   11   18 1   
    17   12   13 1   
    18   12   14 1   
    19   19   20 1   
    20   19   24 1   
    21   20   21 1   
    22   20   23 1   
    23   20   25 1   
    24   21   22 2   
    25   21   29 1   
    26   23   26 1   
    27   23   27 1   
    28   23   28 1   
    29   29   30 1   
    30   29   37 1   
    31   30   31 1   
    32   30   33 1   
    33   30   38 1   
    34   31   32 2   
    35   31   41 1   
    36   33   34 1   
    37   33   39 1   
    38   33   40 1   
    39   34   35 1   
    40   34   36 1   
    41   41   42 1   
    42   41   45 1   
    43   42   43 1   
    44   42   46 1   
    45   42   47 1   
    46   43   44 2   
    47   43   48 1   
    48   48   49 1   
    49   48   56 1   
    50   49   50 1   
    51   49   52 1   
    52   49   57 1   
    53   50   51 2   
    54   50   62 1   
    55   52   53 1   
    56   52   58 1   
    57   52   59 1   
    58   53   54 1   
    59   53   55 2   
    60   54   60 1   
    61   54   61 1   
    62   62   63 1   
    63   62   66 1   
    64   63   64 1   
    65   63   67 1   
    66   63   68 1   
    67   64   65 2   
    68   64   69 1   
    69   69   70 1   
    70   69   76 1   
    71   70   71 1   
    72   70   73 1   
    73   70   77 1   
    74   71   72 2   
    75   71   83 1   
    76   73   74 1   
    77   73   75 1   
    78   73   78 1   
    79   74   80 1   
    80   74   81 1   
    81   74   82 1   
    82   75   79 1   
    83   83   84 1   
    84   83   91 1   
    85   84   85 1   
    86   84   87 1   
    87   84   92 1   
    88   85   86 2   
    89   85  102 1   
    90   87   88 1   
    91   87   89 1   
    92   87   93 1   
    93   88   90 1   
    94   88   94 1   
    95   88   95 1   
    96   89   96 1   
    97   89   97 1   
    98   89   98 1   
    99   90   99 1   
   100   90  100 1   
   101   90  101 1   
   102  102  103 1   
   103  102  110 1   
   104  103  104 1   
   105  103  106 1   
   106  103  111 1   
   107  104  105 2   
   108  104  114 1   
   109  106  107 1   
   110  106  112 1   
   111  106  113 1   
   112  107  108 1   
   113  107  109 1   
   114  114  115 1   
   115  114  125 1   
   116  115  116 1   
   117  115  118 1   
   118  115  126 1   
   119  116  117 2   
   120  116  134 1   
   121  118  119 1   
   122  118  127 1   
   123  118  128 1   
   124  119  120 ar  
   125  119  121 ar  
   126  120  122 ar  
   127  120  129 1   
   128  121  123 ar  
   129  121  130 1   
   130  122  124 ar  
   131  122  131 1   
   132  123  124 ar  
   133  123  132 1   
   134  124  133 1   
   135  134  135 1   
   136  134  140 1   
   137  135  136 1   
   138  135  138 1   
   139  135  141 1   
   140  136  137 2   
   141  136  148 1   
   142  138  139 1   
   143  138  142 1   
   144  138  143 1   
   145  139  140 1   
   146  139  144 1   
   147  139  145 1   
   148  140  146 1   
   149  140  147 1   
   150  148  149 1   
   151  148  157 1   
   152  149  150 1   
   153  149  152 1   
   154  149  158 1   
   155  150  151 2   
   156  150  163 1   
   157  152  153 1   
   158  152  159 1   
   159  152  160 1   
   160  153  154 1   
   161  153  161 1   
   162  153  162 1   
   163  154  155 1   
   164  154  156 1   
   165  163  164 1   
   166  163  168 1   
   167  164  165 1   
   168  164  166 1   
   169  164  167 1   
   170  170  171 1   
   171  170  172 1   
   172  173  174 1   
   173  173  175 1   
@<TRIPOS>SUBSTRUCTURE
     1 MOL         1 TEMP              0 ****  ****    0 ROOT
