@<TRIPOS>MOLECULE
MOL
  179   176     1     0     0
SMALL
resp


@<TRIPOS>ATOM
      1 C1          3.0030    3.2640    4.6390 c3        1 MOL     -0.373303
      2 C2          2.2220    3.0540    3.3130 c         1 MOL      0.661158
      3 O1          2.8930    3.0090    2.2600 o         1 MOL     -0.568681
      4 H1          3.6660    4.1230    4.5360 hc        1 MOL      0.092179
      5 H2          2.2990    3.4450    5.4520 hc        1 MOL      0.092179
      6 H3          3.5930    2.3740    4.8590 hc        1 MOL      0.092179
      7 N1          0.8940    2.9440    3.3210 n         1 MOL     -0.637118
      8 C3          0.0010    2.9300    2.1160 c3        1 MOL      0.211809
      9 C4         -0.2470    4.3240    1.4750 c         1 MOL      0.474887
     10 O2         -1.3490    4.8340    1.6140 o         1 MOL     -0.439189
     11 C5         -1.2390    2.0640    2.4150 c3        1 MOL      0.012270
     12 C6         -2.3160    2.1070    1.2280 c         1 MOL      0.424353
     13 O3         -3.5450    2.1180    1.4770 o         1 MOL     -0.550844
     14 O4         -1.8590    1.9670    0.0600 o         1 MOL     -0.550844
     15 H4          0.4400    2.8860    4.2180 hn        1 MOL      0.341780
     16 H5          0.5090    2.3470    1.3480 h1        1 MOL      0.089260
     17 H6         -1.6800    2.4600    3.3300 hc        1 MOL     -0.021495
     18 H7         -0.9890    1.0070    2.5180 hc        1 MOL     -0.021495
     19 N2          0.8430    4.8870    0.9250 n         1 MOL     -0.496664
     20 C7          0.9050    6.1410    0.2640 c3        1 MOL      0.093501
     21 C8          0.0240    6.0770   -0.9730 c         1 MOL      0.533679
     22 O5         -0.2180    7.1700   -1.4580 o         1 MOL     -0.563026
     23 C9          2.2780    6.5800   -0.1600 c3        1 MOL     -0.335635
     24 C10         3.1710    6.7250    1.0930 c3        1 MOL      0.161788
     25 C11         4.6060    7.1460    0.6760 c3        1 MOL     -0.045338
     26 C12         5.6340    7.3070    1.7590 c3        1 MOL      0.009949
     27 N3          5.9150    6.1750    2.6930 n4        1 MOL     -0.322920
     28 H8          1.6020    4.2550    0.7270 hn        1 MOL      0.339021
     29 H9          0.3250    6.8820    0.8250 h1        1 MOL      0.094826
     30 H10         2.2300    7.5660   -0.6240 hc        1 MOL      0.107306
     31 H11         2.7080    5.8400   -0.8380 hc        1 MOL      0.107306
     32 H12         3.4210    5.8660    1.7180 hc        1 MOL     -0.024146
     33 H13         2.7910    7.4560    1.8160 hc        1 MOL     -0.024146
     34 H14         4.5280    8.1080    0.1500 hc        1 MOL      0.061744
     35 H15         5.1520    6.4900   -0.0060 hc        1 MOL      0.061744
     36 H16         5.1180    8.0670    2.3450 hx        1 MOL      0.069991
     37 H17         6.5360    7.7140    1.3000 hx        1 MOL      0.069991
     38 H18         6.7990    6.3710    3.1320 hn        1 MOL      0.324492
     39 H19         5.2350    6.2130    3.4440 hn        1 MOL      0.324492
     40 H20         5.8920    5.2860    2.2140 hn        1 MOL      0.324492
     41 N4         -0.3620    4.8790   -1.4880 n         1 MOL     -0.287663
     42 C13        -1.1630    4.8430   -2.7150 c3        1 MOL      0.106950
     43 C14        -2.6440    4.7740   -2.2620 c         1 MOL      0.327957
     44 O6         -3.4910    5.0140   -3.1060 o         1 MOL     -0.532676
     45 C15        -0.8100    3.7740   -3.7380 c3        1 MOL     -0.268942
     46 C16        -0.9850    2.4540   -3.1580 c         1 MOL      0.875608
     47 O7          0.0020    1.8090   -2.7240 o         1 MOL     -0.785203
     48 O8         -2.1230    1.9710   -3.1300 o         1 MOL     -0.785203
     49 H21         0.1390    4.1090   -1.0690 hn        1 MOL      0.220197
     50 H22        -1.0580    5.8010   -3.2230 h1        1 MOL      0.086152
     51 H23         0.2310    3.9190   -4.0260 hc        1 MOL      0.065609
     52 H24        -1.4270    3.8960   -4.6200 hc        1 MOL      0.065609
     53 N5         -2.9630    4.4130   -1.0100 n         1 MOL      0.191952
     54 C17        -4.2180    4.6340   -0.3280 c3        1 MOL     -0.145239
     55 C18        -5.3170    3.7580   -0.8570 c         1 MOL      0.436071
     56 O9         -6.4950    4.1170   -0.9630 o         1 MOL     -0.556600
     57 H25        -2.1520    4.1630   -0.4610 hn        1 MOL     -0.215760
     58 H26        -4.4660    5.6860   -0.4530 h1        1 MOL      0.095482
     59 H27        -4.0410    4.4870    0.7380 h1        1 MOL      0.095482
     60 N6         -5.0660    2.5350   -1.3420 n         1 MOL     -0.123456
     61 C19        -6.0760    1.5630   -1.6070 c3        1 MOL      0.001604
     62 C20        -6.5340    0.6860   -0.4040 c         1 MOL      0.361888
     63 O10        -7.6780    0.1770   -0.4570 o         1 MOL     -0.520358
     64 C21        -5.6600    0.6730   -2.8140 c3        1 MOL     -0.147045
     65 C22        -4.7250   -0.4450   -2.4420 c         1 MOL      0.674968
     66 N7         -4.5570   -1.4760   -3.2640 n         1 MOL     -0.782501
     67 O11        -3.9750   -0.2970   -1.5170 o         1 MOL     -0.541541
     68 H28        -4.1320    2.1680   -1.3970 hn        1 MOL      0.136846
     69 H29        -7.0070    2.0170   -1.9350 h1        1 MOL      0.110729
     70 H30        -5.2560    1.3590   -3.5620 hc        1 MOL      0.056737
     71 H31        -6.5690    0.2240   -3.1980 hc        1 MOL      0.056737
     72 H32        -5.0170   -1.4770   -4.1570 hn        1 MOL      0.356611
     73 H33        -3.7810   -2.0580   -2.9850 hn        1 MOL      0.356611
     74 N8         -5.8430    0.7840    0.7450 n         1 MOL     -0.107029
     75 C23        -6.3300    0.0600    1.9480 c3        1 MOL     -0.146885
     76 C24        -5.5460   -1.2170    2.3030 c         1 MOL      0.544979
     77 O12        -5.8590   -1.8810    3.2830 o         1 MOL     -0.581244
     78 H34        -4.9450    1.2510    0.7720 hn        1 MOL      0.128974
     79 H35        -7.4030   -0.1000    1.9570 h1        1 MOL      0.097672
     80 H36        -6.1450    0.7180    2.7970 h1        1 MOL      0.097672
     81 N9         -4.5560   -1.5530    1.5030 n         1 MOL     -0.106090
     82 C25        -3.6600   -2.7290    1.6350 c3        1 MOL     -0.053327
     83 C26        -2.1880   -2.3750    1.3250 c         1 MOL      0.406121
     84 O13        -1.9360   -1.3360    0.7150 o         1 MOL     -0.451555
     85 C27        -4.1270   -3.6430    0.5280 c3        1 MOL      0.347972
     86 C28        -5.4230   -4.4010    0.6890 ca        1 MOL     -0.171327
     87 C29        -6.6850   -3.8000    0.5220 ca        1 MOL     -0.065696
     88 C30        -5.3450   -5.7450    1.1090 ca        1 MOL     -0.065696
     89 C31        -7.9040   -4.5920    0.6300 ca        1 MOL     -0.302766
     90 C32        -6.5710   -6.4990    1.2060 ca        1 MOL     -0.302766
     91 C33        -7.8100   -5.9070    1.0660 ca        1 MOL      0.373791
     92 O14        -8.9640   -6.5690    1.2130 oh        1 MOL     -0.410894
     93 H37        -4.3360   -0.9070    0.7670 hn        1 MOL      0.051210
     94 H38        -3.6330   -3.2550    2.5840 h1        1 MOL      0.052665
     95 H39        -3.4190   -4.4560    0.3210 hc        1 MOL     -0.062721
     96 H40        -4.1800   -3.1850   -0.4600 hc        1 MOL     -0.062721
     97 H41        -6.7070   -2.7610    0.2540 ha        1 MOL      0.083062
     98 H42        -4.3540   -6.1650    1.1580 ha        1 MOL      0.083062
     99 H43        -8.8480   -4.1060    0.4540 ha        1 MOL      0.157786
    100 H44        -6.4580   -7.5640    1.3680 ha        1 MOL      0.157786
    101 H45        -8.6770   -7.4770    1.3710 ho        1 MOL      0.292922
    102 N10        -1.2550   -3.1990    1.7950 n         1 MOL     -0.385034
    103 C34         0.1740   -2.9970    1.6770 c3        1 MOL      0.101574
    104 C35         0.8330   -4.1370    0.8340 c         1 MOL      0.462742
    105 O15         0.5040   -5.3110    0.9340 o         1 MOL     -0.575299
    106 C36         0.7880   -2.7910    3.0910 c3        1 MOL     -0.014661
    107 C37         0.4590   -1.3840    3.6010 c3        1 MOL      0.241433
    108 C38         2.3090   -3.0480    3.1170 c3        1 MOL     -0.228973
    109 C39         0.8340   -1.0300    5.0530 c3        1 MOL     -0.207652
    110 H46        -1.5120   -3.9960    2.3690 hn        1 MOL      0.275574
    111 H47         0.2080   -2.0670    1.1190 h1        1 MOL     -0.032168
    112 H48         0.2750   -3.4450    3.8010 hc        1 MOL      0.026403
    113 H49        -0.6300   -1.3190    3.6290 hc        1 MOL     -0.011326
    114 H50         0.7980   -0.5730    2.9560 hc        1 MOL     -0.011326
    115 H51         2.8400   -2.2270    2.6370 hc        1 MOL      0.052105
    116 H52         2.6670   -2.9220    4.1370 hc        1 MOL      0.052105
    117 H53         2.6300   -4.0160    2.7340 hc        1 MOL      0.052105
    118 H54         0.3280   -1.7150    5.7260 hc        1 MOL      0.040517
    119 H55         1.9050   -1.0440    5.2420 hc        1 MOL      0.040517
    120 H56         0.4590   -0.0120    5.1780 hc        1 MOL      0.040517
    121 N11         1.7680   -3.7730   -0.0010 n         1 MOL     -0.025905
    122 C40         2.7040   -4.6520   -0.7090 c3        1 MOL     -0.091594
    123 C41         4.1530   -4.4980   -0.1860 c         1 MOL      0.582195
    124 O16         4.5130   -3.6090    0.5490 o         1 MOL     -0.445779
    125 C42         2.6020   -4.3310   -2.1910 c3        1 MOL      0.010357
    126 O17         2.8430   -2.9330   -2.5530 oh        1 MOL     -0.655651
    127 H57         1.9090   -2.7770   -0.0170 hn        1 MOL      0.027643
    128 H58         2.4380   -5.7140   -0.6630 h1        1 MOL      0.064524
    129 H59         1.5530   -4.5130   -2.4490 h1        1 MOL      0.068065
    130 H60         3.1720   -5.0650   -2.7600 h1        1 MOL      0.068065
    131 H61         2.1770   -2.3730   -2.1540 ho        1 MOL      0.471878
    132 N12         5.0050   -5.4500   -0.6950 n         1 MOL     -0.577884
    133 C43         6.4950   -5.3900   -0.4030 c3        1 MOL      0.119063
    134 C44         7.0820   -4.0280   -0.9140 c         1 MOL      0.469983
    135 O18         7.8050   -3.2610   -0.2410 o         1 MOL     -0.482614
    136 C45         7.1080   -6.5350   -1.0950 c3        1 MOL     -0.240230
    137 H62         4.6890   -6.1270   -1.3840 hn        1 MOL      0.336165
    138 H63         6.7050   -5.5220    0.6570 h1        1 MOL      0.097285
    139 H64         6.7950   -6.5860   -2.1370 hc        1 MOL      0.075129
    140 H65         8.1890   -6.6300   -1.0030 hc        1 MOL      0.075129
    141 H66         6.6590   -7.4680   -0.7570 hc        1 MOL      0.075129
    142 N13         6.6100   -3.6890   -2.1510 n         1 MOL     -0.447825
    143 C46         7.1140   -2.5360   -2.8530 c3        1 MOL      0.171018
    144 C47         6.8360   -1.2620   -2.0730 c         1 MOL      0.337431
    145 O19         7.6850   -0.3300   -2.1620 o         1 MOL     -0.545347
    146 C48         6.4390   -2.6030   -4.2240 c3        1 MOL     -0.300390
    147 H67         5.9040   -4.2250   -2.6310 hn        1 MOL      0.294380
    148 H68         8.1960   -2.5880   -3.0070 h1        1 MOL      0.076449
    149 H69         5.3690   -2.4500   -4.0930 hc        1 MOL      0.088572
    150 H70         6.8200   -1.8200   -4.8840 hc        1 MOL      0.088572
    151 H71         6.7130   -3.5500   -4.6860 hc        1 MOL      0.088572
    152 N14         5.7810   -1.1090   -1.2780 n         1 MOL     -0.091162
    153 C49         5.5180    0.1010   -0.5480 c3        1 MOL     -0.031349
    154 C50         6.0370    0.1100    0.9030 c         1 MOL      0.460330
    155 O20         6.2130    1.1790    1.4670 o         1 MOL     -0.561039
    156 C51         4.0620    0.4140   -0.6390 c3        1 MOL     -0.084148
    157 C52         3.1090   -0.5660   -0.0090 c3        1 MOL      0.162646
    158 C53         1.6860   -0.4430   -0.4730 c         1 MOL      0.822990
    159 O21         1.1860   -1.3210   -1.1540 o         1 MOL     -0.839103
    160 O22         1.0050    0.5440   -0.0550 o         1 MOL     -0.839103
    161 H72         5.1030   -1.8610   -1.2230 hn        1 MOL      0.202878
    162 H73         6.0880    0.9050   -1.0010 h1        1 MOL      0.103392
    163 H74         3.7930    0.3980   -1.6960 hc        1 MOL     -0.005644
    164 H75         3.8530    1.3400   -0.1080 hc        1 MOL     -0.005644
    165 H76         3.1930   -0.5210    1.0820 hc        1 MOL     -0.015322
    166 H77         3.4880   -1.5470   -0.2940 hc        1 MOL     -0.015322
    167 N15         6.3580   -1.0690    1.5140 n         1 MOL     -0.094663
    168 C54         6.9790   -1.2660    2.7810 c3        1 MOL     -0.238266
    169 H78         7.5120   -0.3600    3.0690 h1        1 MOL      0.095560
    170 H79         6.2180   -1.4910    3.5270 h1        1 MOL      0.095560
    171 H80         7.6830   -2.0960    2.7160 h1        1 MOL      0.095560
    172 H81         6.3010   -1.8700    0.8900 hn        1 MOL      0.102761
    173 Ca1        -1.2370   -0.1210   -1.4510 Ca        1 MOL      1.759623
    174 O23        -2.0270   -2.8210   -2.1720 oh        1 MOL     -0.881120
    175 H82        -1.7250   -2.8500   -3.0880 ho        1 MOL      0.429017
    176 H83        -1.9180   -3.7130   -1.8540 ho        1 MOL      0.429017
    177 O24        -0.9830   -0.9270   -4.0130 oh        1 MOL     -0.881120
    178 H84        -0.9610   -0.3190   -4.7560 ho        1 MOL      0.429017
    179 H85        -0.6940   -1.7580   -4.3810 ho        1 MOL      0.429017
@<TRIPOS>BOND
     1    1    2 1   
     2    1    4 1   
     3    1    5 1   
     4    1    6 1   
     5    2    3 2   
     6    2    7 1   
     7    7    8 1   
     8    7   15 1   
     9    8    9 1   
    10    8   11 1   
    11    8   16 1   
    12    9   10 2   
    13    9   19 1   
    14   11   12 1   
    15   11   17 1   
    16   11   18 1   
    17   12   13 1   
    18   12   14 1   
    19   19   20 1   
    20   19   28 1   
    21   20   21 1   
    22   20   23 1   
    23   20   29 1   
    24   21   22 2   
    25   21   41 1   
    26   23   24 1   
    27   23   30 1   
    28   23   31 1   
    29   24   25 1   
    30   24   32 1   
    31   24   33 1   
    32   25   26 1   
    33   25   34 1   
    34   25   35 1   
    35   26   27 1   
    36   26   36 1   
    37   26   37 1   
    38   27   38 1   
    39   27   39 1   
    40   27   40 1   
    41   41   42 1   
    42   41   49 1   
    43   42   43 1   
    44   42   45 1   
    45   42   50 1   
    46   43   44 2   
    47   43   53 1   
    48   45   46 1   
    49   45   51 1   
    50   45   52 1   
    51   46   47 1   
    52   46   48 1   
    53   53   54 1   
    54   53   57 1   
    55   54   55 1   
    56   54   58 1   
    57   54   59 1   
    58   55   56 2   
    59   55   60 1   
    60   60   61 1   
    61   60   68 1   
    62   61   62 1   
    63   61   64 1   
    64   61   69 1   
    65   62   63 2   
    66   62   74 1   
    67   64   65 1   
    68   64   70 1   
    69   64   71 1   
    70   65   66 1   
    71   65   67 2   
    72   66   72 1   
    73   66   73 1   
    74   74   75 1   
    75   74   78 1   
    76   75   76 1   
    77   75   79 1   
    78   75   80 1   
    79   76   77 2   
    80   76   81 1   
    81   81   82 1   
    82   81   93 1   
    83   82   83 1   
    84   82   85 1   
    85   82   94 1   
    86   83   84 2   
    87   83  102 1   
    88   85   86 1   
    89   85   95 1   
    90   85   96 1   
    91   86   87 ar  
    92   86   88 ar  
    93   87   89 ar  
    94   87   97 1   
    95   88   90 ar  
    96   88   98 1   
    97   89   91 ar  
    98   89   99 1   
    99   90   91 ar  
   100   90  100 1   
   101   91   92 1   
   102   92  101 1   
   103  102  103 1   
   104  102  110 1   
   105  103  104 1   
   106  103  106 1   
   107  103  111 1   
   108  104  105 2   
   109  104  121 1   
   110  106  107 1   
   111  106  108 1   
   112  106  112 1   
   113  107  109 1   
   114  107  113 1   
   115  107  114 1   
   116  108  115 1   
   117  108  116 1   
   118  108  117 1   
   119  109  118 1   
   120  109  119 1   
   121  109  120 1   
   122  121  122 1   
   123  121  127 1   
   124  122  123 1   
   125  122  125 1   
   126  122  128 1   
   127  123  124 2   
   128  123  132 1   
   129  125  126 1   
   130  125  129 1   
   131  125  130 1   
   132  126  131 1   
   133  132  133 1   
   134  132  137 1   
   135  133  134 1   
   136  133  136 1   
   137  133  138 1   
   138  134  135 2   
   139  134  142 1   
   140  136  139 1   
   141  136  140 1   
   142  136  141 1   
   143  142  143 1   
   144  142  147 1   
   145  143  144 1   
   146  143  146 1   
   147  143  148 1   
   148  144  145 2   
   149  144  152 1   
   150  146  149 1   
   151  146  150 1   
   152  146  151 1   
   153  152  153 1   
   154  152  161 1   
   155  153  154 1   
   156  153  156 1   
   157  153  162 1   
   158  154  155 2   
   159  154  167 1   
   160  156  157 1   
   161  156  163 1   
   162  156  164 1   
   163  157  158 1   
   164  157  165 1   
   165  157  166 1   
   166  158  159 1   
   167  158  160 1   
   168  167  168 1   
   169  167  172 1   
   170  168  169 1   
   171  168  170 1   
   172  168  171 1   
   173  174  175 1   
   174  174  176 1   
   175  177  178 1   
   176  177  179 1   
@<TRIPOS>SUBSTRUCTURE
     1 MOL         1 TEMP              0 ****  ****    0 ROOT
