@<TRIPOS>MOLECULE
MOL
  175   173     1     0     0
SMALL
resp


@<TRIPOS>ATOM
      1 C1          0.2630    3.9890    5.7520 c3        1 MOL     -0.296174
      2 C2         -0.1950    4.0490    4.3380 c         1 MOL      0.715791
      3 O1          0.5390    4.4470    3.4300 o         1 MOL     -0.584310
      4 H1         -0.3800    4.6160    6.3690 hc        1 MOL      0.068055
      5 H2          0.2130    2.9590    6.1070 hc        1 MOL      0.068055
      6 H3          1.2910    4.3470    5.8170 hc        1 MOL      0.068055
      7 N1         -1.3270    3.4650    4.0110 n         1 MOL     -0.527249
      8 C3         -1.9020    3.3610    2.6830 c3        1 MOL      0.054258
      9 C4         -2.0920    4.7060    1.9420 c         1 MOL      0.550213
     10 O2         -2.2280    5.7610    2.5450 o         1 MOL     -0.568181
     11 C5         -3.2600    2.6220    2.8360 c3        1 MOL     -0.185066
     12 C6         -4.0170    2.5350    1.5360 c         1 MOL      0.610350
     13 O3         -3.7180    1.6270    0.7210 o         1 MOL     -0.639388
     14 O4         -4.9080    3.3730    1.2360 o         1 MOL     -0.639388
     15 H4         -1.9120    3.0560    4.7280 hn        1 MOL      0.270011
     16 H5         -1.1920    2.7460    2.1290 h1        1 MOL      0.056064
     17 H6         -3.8280    3.1590    3.5940 hc        1 MOL      0.031843
     18 H7         -3.1750    1.6080    3.2460 hc        1 MOL      0.031843
     19 N2         -2.1510    4.6470    0.6310 n         1 MOL     -0.321535
     20 C7         -2.3940    5.7270   -0.2580 c3        1 MOL      0.292676
     21 C8         -3.1140    5.2080   -1.5390 c         1 MOL      0.438822
     22 O5         -3.0730    5.8640   -2.6050 o         1 MOL     -0.566074
     23 C9         -1.0400    6.4370   -0.6260 c3        1 MOL     -0.402780
     24 H8         -1.8570    3.7400    0.3020 hn        1 MOL      0.234671
     25 H9         -3.0830    6.4190    0.2300 h1        1 MOL      0.016969
     26 H10        -0.4440    5.7060   -1.1680 hc        1 MOL      0.100863
     27 H11        -1.3230    7.3060   -1.2230 hc        1 MOL      0.100863
     28 H12        -0.5780    6.7890    0.2990 hc        1 MOL      0.100863
     29 N3         -3.9480    4.1520   -1.5480 n         1 MOL     -0.232396
     30 C10        -4.7250    3.6930   -2.7300 c3        1 MOL      0.036250
     31 C11        -5.9120    2.7220   -2.4750 c         1 MOL      0.354006
     32 O6         -6.8460    2.6050   -3.3070 o         1 MOL     -0.554860
     33 C12        -3.8840    2.9640   -3.7880 c3        1 MOL     -0.140515
     34 C13        -3.0920    1.6500   -3.3120 c         1 MOL      0.700199
     35 O7         -2.1980    1.1770   -4.0770 o         1 MOL     -0.695220
     36 O8         -3.3300    1.0260   -2.2330 o         1 MOL     -0.695220
     37 H13        -4.0770    3.5780   -0.7350 hn        1 MOL      0.065140
     38 H14        -5.2460    4.5560   -3.1320 h1        1 MOL      0.060089
     39 H15        -3.1710    3.6580   -4.2300 hc        1 MOL      0.040577
     40 H16        -4.4640    2.5890   -4.6290 hc        1 MOL      0.040577
     41 N4         -5.8770    2.0530   -1.3130 n         1 MOL      0.079034
     42 C14        -7.0210    1.2550   -0.7750 c3        1 MOL     -0.471886
     43 C15        -7.2100   -0.1720   -1.3230 c         1 MOL      0.637279
     44 O9         -8.2190   -0.8100   -1.1180 o         1 MOL     -0.596055
     45 H17        -5.1030    2.2190   -0.6950 hn        1 MOL      0.109402
     46 H18        -7.9380    1.8090   -0.9800 h1        1 MOL      0.164118
     47 H19        -6.8660    1.1330    0.2990 h1        1 MOL      0.164118
     48 N5         -6.1880   -0.7680   -1.9620 n         1 MOL     -0.323728
     49 C16        -6.2040   -2.2500   -2.3490 c3        1 MOL     -0.010401
     50 C17        -6.3220   -3.1590   -1.0790 c         1 MOL      0.494532
     51 O10        -6.7120   -4.3390   -1.1920 o         1 MOL     -0.564198
     52 C18        -5.0340   -2.6090   -3.2140 c3        1 MOL      0.003043
     53 C19        -3.6870   -2.5070   -2.5820 c         1 MOL      0.568286
     54 N6         -2.6640   -2.4910   -3.3590 n         1 MOL     -0.662800
     55 O11        -3.4630   -2.4410   -1.3950 o         1 MOL     -0.610337
     56 H20        -5.3810   -0.1990   -2.1550 hn        1 MOL      0.153229
     57 H21        -7.1010   -2.4500   -2.9340 h1        1 MOL      0.093628
     58 H22        -5.1350   -2.1610   -4.2070 hc        1 MOL      0.034818
     59 H23        -5.1960   -3.6590   -3.4500 hc        1 MOL      0.034818
     60 H24        -2.6690   -2.6270   -4.3620 hn        1 MOL      0.346432
     61 H25        -1.7510   -2.4040   -2.9350 hn        1 MOL      0.346432
     62 N7         -6.1470   -2.6460    0.1600 n         1 MOL     -0.215657
     63 C20        -6.2630   -3.4530    1.4100 c3        1 MOL     -0.215247
     64 C21        -4.9400   -4.2000    1.8340 c         1 MOL      0.406361
     65 O12        -4.9230   -4.9250    2.8040 o         1 MOL     -0.553152
     66 H26        -5.8490   -1.6900    0.2500 hn        1 MOL      0.192624
     67 H27        -7.0870   -4.1510    1.3330 h1        1 MOL      0.127185
     68 H28        -6.6370   -2.8510    2.2350 h1        1 MOL      0.127185
     69 N8         -3.8390   -3.9570    1.1220 n         1 MOL      0.050859
     70 C22        -2.5490   -4.5520    1.4770 c3        1 MOL     -0.244000
     71 C23        -1.3870   -3.5570    1.5820 c         1 MOL      0.597937
     72 O13        -1.4480   -2.5960    0.7690 o         1 MOL     -0.601906
     73 C24        -2.2910   -5.7090    0.4620 c3        1 MOL      0.556008
     74 C25        -3.4430   -6.7160    0.2640 c3        1 MOL     -0.257992
     75 O14        -1.9310   -5.2260   -0.8500 oh        1 MOL     -0.656747
     76 H29        -3.8690   -3.2800    0.3780 hn        1 MOL      0.064705
     77 H30        -2.5310   -4.9810    2.4790 h1        1 MOL      0.064382
     78 H31        -1.4730   -6.3210    0.8490 h1        1 MOL     -0.075849
     79 H32        -1.8400   -4.2800   -0.7940 ho        1 MOL      0.404435
     80 H33        -4.3030   -6.1680   -0.1270 hc        1 MOL      0.056097
     81 H34        -3.1420   -7.5460   -0.3770 hc        1 MOL      0.056097
     82 H35        -3.6640   -7.1340    1.2480 hc        1 MOL      0.056097
     83 N9         -0.2880   -3.6920    2.3820 n         1 MOL     -0.523199
     84 C26         0.8540   -2.7800    2.2520 c3        1 MOL      0.018682
     85 C27         1.6110   -3.1130    0.9340 c         1 MOL      0.474880
     86 O15         2.0680   -4.2360    0.6680 o         1 MOL     -0.585089
     87 C28         1.6930   -2.7270    3.5920 c3        1 MOL      0.124759
     88 C29         0.7260   -2.2720    4.7700 c3        1 MOL     -0.102438
     89 C30         2.8910   -1.7680    3.4710 c3        1 MOL     -0.105843
     90 C31         1.3260   -2.4750    6.1660 c3        1 MOL     -0.023127
     91 H36        -0.2770   -4.4630    3.0360 hn        1 MOL      0.318777
     92 H37         0.5450   -1.7390    2.1720 h1        1 MOL      0.036331
     93 H38         2.0950   -3.7220    3.7980 hc        1 MOL     -0.005494
     94 H39        -0.2830   -2.6850    4.8510 hc        1 MOL      0.035237
     95 H40         0.5980   -1.1860    4.7980 hc        1 MOL      0.035237
     96 H41         3.5020   -2.0720    2.6160 hc        1 MOL      0.029600
     97 H42         2.4570   -0.7820    3.3150 hc        1 MOL      0.029600
     98 H43         3.5080   -1.8810    4.3540 hc        1 MOL      0.029600
     99 H44         1.5940   -3.5060    6.4070 hc        1 MOL      0.001972
    100 H45         2.2430   -1.8860    6.2800 hc        1 MOL      0.001972
    101 H46         0.6870   -2.2650    7.0170 hc        1 MOL      0.001972
    102 N10         1.7570   -2.1100    0.1210 n         1 MOL     -0.051577
    103 C32         2.6010   -2.1110   -1.0890 c3        1 MOL      0.014970
    104 C33         4.0720   -1.6660   -0.8200 c         1 MOL      0.416738
    105 O16         4.3470   -1.0170    0.1840 o         1 MOL     -0.336206
    106 C34         1.9780   -1.1040   -2.0820 c3        1 MOL     -0.263791
    107 C35         0.5280   -1.2730   -2.4960 c         1 MOL      0.736525
    108 O17        -0.3710   -0.9990   -1.6830 o         1 MOL     -0.674093
    109 O18         0.3830   -1.8280   -3.6340 o         1 MOL     -0.674093
    110 H47         1.2290   -1.2680    0.2340 hn        1 MOL      0.020822
    111 H48         2.6500   -3.1090   -1.5250 h1        1 MOL      0.077703
    112 H49         2.6630   -0.9280   -2.9190 hc        1 MOL      0.087088
    113 H50         1.9350   -0.1670   -1.5250 hc        1 MOL      0.087088
    114 N11         5.0460   -2.0870   -1.6880 n         1 MOL     -0.614882
    115 C36         6.4730   -1.6570   -1.3770 c3        1 MOL      0.345176
    116 C37         6.6640   -0.1650   -1.1150 c         1 MOL      0.402396
    117 O19         7.2150    0.1290   -0.1310 o         1 MOL     -0.501555
    118 C38         7.4460   -2.2870   -2.3340 c3        1 MOL     -0.175296
    119 C39         8.9200   -1.8210   -2.0950 ca        1 MOL      0.129595
    120 C40         9.6560   -2.4870   -1.0970 ca        1 MOL     -0.258081
    121 C41         9.4400   -0.7100   -2.7420 ca        1 MOL     -0.258081
    122 C42        10.9660   -2.0900   -0.7840 ca        1 MOL      0.017482
    123 C43        10.7220   -0.2510   -2.4210 ca        1 MOL      0.017482
    124 C44        11.5610   -1.0320   -1.5470 ca        1 MOL     -0.240585
    125 H51         4.9050   -2.6070   -2.5380 hn        1 MOL      0.335331
    126 H52         6.6990   -2.1810   -0.4500 h1        1 MOL      0.031900
    127 H53         7.1180   -2.0450   -3.3450 hc        1 MOL      0.050649
    128 H54         7.3660   -3.3650   -2.2310 hc        1 MOL      0.050649
    129 H55         9.1520   -3.3030   -0.6010 ha        1 MOL      0.136801
    130 H56         8.8950   -0.2760   -3.5660 ha        1 MOL      0.136801
    131 H57        11.5520   -2.5850   -0.0270 ha        1 MOL      0.086029
    132 H58        11.1470    0.5970   -2.9340 ha        1 MOL      0.086029
    133 H59        12.5850   -0.7220   -1.4800 ha        1 MOL      0.129458
    134 N12         6.1370    0.7720   -2.0010 n         1 MOL     -0.024382
    135 C45         6.1230    2.1500   -1.6450 c3        1 MOL      0.020991
    136 C46         5.4480    2.6810   -0.3360 c         1 MOL      0.303061
    137 O20         5.6020    3.8350    0.0320 o         1 MOL     -0.503625
    138 C47         5.4510    2.8440   -2.8860 c3        1 MOL     -0.268695
    139 C48         6.0120    1.9710   -4.0600 c3        1 MOL      0.167321
    140 C49         5.8170    0.6250   -3.3750 c3        1 MOL     -0.030770
    141 H60         7.1470    2.5090   -1.6740 h1        1 MOL      0.046785
    142 H61         4.3630    2.8190   -2.8890 hc        1 MOL      0.095408
    143 H62         5.8340    3.8560   -3.0080 hc        1 MOL      0.095408
    144 H63         5.6050    2.0700   -5.0610 hc        1 MOL     -0.015936
    145 H64         7.0790    2.1440   -4.2010 hc        1 MOL     -0.015936
    146 H65         4.7880    0.2800   -3.4480 h1        1 MOL     -0.004915
    147 H66         6.5210   -0.0100   -3.9200 h1        1 MOL     -0.004915
    148 N13         4.6620    1.8060    0.2700 n         1 MOL      0.019920
    149 C50         3.9390    2.1160    1.5090 c3        1 MOL     -0.259805
    150 C51         4.7670    1.6020    2.7410 c         1 MOL      0.511771
    151 O21         4.7550    2.2210    3.8450 o         1 MOL     -0.569320
    152 C52         2.5030    1.6780    1.4930 c3        1 MOL      0.149456
    153 C53         1.6210    2.1610    0.3520 c3        1 MOL      0.053469
    154 C54         0.1760    1.5040    0.3390 c         1 MOL      0.426602
    155 O22        -0.7610    2.0540   -0.3170 o         1 MOL     -0.617148
    156 O23        -0.0470    0.4360    0.9680 o         1 MOL     -0.617148
    157 H67         4.5280    0.9140   -0.1940 hn        1 MOL      0.028435
    158 H68         3.8980    3.2040    1.4970 h1        1 MOL      0.133065
    159 H69         2.1200    2.0430    2.4460 hc        1 MOL     -0.001223
    160 H70         2.4000    0.5990    1.5770 hc        1 MOL     -0.001223
    161 H71         2.0910    1.7980   -0.5540 hc        1 MOL      0.020175
    162 H72         1.5650    3.2460    0.3110 hc        1 MOL      0.020175
    163 N14         5.3400    0.4290    2.5950 n         1 MOL     -0.135245
    164 C55         6.3900   -0.1100    3.5610 c3        1 MOL     -0.214808
    165 H73         6.0620    0.0630    4.5870 h1        1 MOL      0.092010
    166 H74         6.5200   -1.1790    3.3980 h1        1 MOL      0.092010
    167 H75         7.3370    0.4030    3.3910 h1        1 MOL      0.092010
    168 H76         5.1120   -0.1000    1.7660 hn        1 MOL      0.108045
    169 Ca1        -2.3020   -0.3100   -0.2110 Ca        1 MOL      1.696952
    170 O24        -4.2210   -0.8890    1.5310 oh        1 MOL     -0.816360
    171 H77        -3.6450   -0.8410    2.2880 ho        1 MOL      0.403728
    172 H78        -4.9750   -0.3390    1.7690 ho        1 MOL      0.403728
    173 O25        -1.8590   -0.3590    2.8850 oh        1 MOL     -0.816360
    174 H79        -1.9390   -0.0790    3.7950 ho        1 MOL      0.403728
    175 H80        -0.9770   -0.0860    2.6210 ho        1 MOL      0.403728
@<TRIPOS>BOND
     1    1    2 1   
     2    1    4 1   
     3    1    5 1   
     4    1    6 1   
     5    2    3 2   
     6    2    7 1   
     7    7    8 1   
     8    7   15 1   
     9    8    9 1   
    10    8   11 1   
    11    8   16 1   
    12    9   10 2   
    13    9   19 1   
    14   11   12 1   
    15   11   17 1   
    16   11   18 1   
    17   12   13 1   
    18   12   14 1   
    19   19   20 1   
    20   19   24 1   
    21   20   21 1   
    22   20   23 1   
    23   20   25 1   
    24   21   22 2   
    25   21   29 1   
    26   23   26 1   
    27   23   27 1   
    28   23   28 1   
    29   29   30 1   
    30   29   37 1   
    31   30   31 1   
    32   30   33 1   
    33   30   38 1   
    34   31   32 2   
    35   31   41 1   
    36   33   34 1   
    37   33   39 1   
    38   33   40 1   
    39   34   35 1   
    40   34   36 1   
    41   41   42 1   
    42   41   45 1   
    43   42   43 1   
    44   42   46 1   
    45   42   47 1   
    46   43   44 2   
    47   43   48 1   
    48   48   49 1   
    49   48   56 1   
    50   49   50 1   
    51   49   52 1   
    52   49   57 1   
    53   50   51 2   
    54   50   62 1   
    55   52   53 1   
    56   52   58 1   
    57   52   59 1   
    58   53   54 1   
    59   53   55 2   
    60   54   60 1   
    61   54   61 1   
    62   62   63 1   
    63   62   66 1   
    64   63   64 1   
    65   63   67 1   
    66   63   68 1   
    67   64   65 2   
    68   64   69 1   
    69   69   70 1   
    70   69   76 1   
    71   70   71 1   
    72   70   73 1   
    73   70   77 1   
    74   71   72 2   
    75   71   83 1   
    76   73   74 1   
    77   73   75 1   
    78   73   78 1   
    79   74   80 1   
    80   74   81 1   
    81   74   82 1   
    82   75   79 1   
    83   83   84 1   
    84   83   91 1   
    85   84   85 1   
    86   84   87 1   
    87   84   92 1   
    88   85   86 2   
    89   85  102 1   
    90   87   88 1   
    91   87   89 1   
    92   87   93 1   
    93   88   90 1   
    94   88   94 1   
    95   88   95 1   
    96   89   96 1   
    97   89   97 1   
    98   89   98 1   
    99   90   99 1   
   100   90  100 1   
   101   90  101 1   
   102  102  103 1   
   103  102  110 1   
   104  103  104 1   
   105  103  106 1   
   106  103  111 1   
   107  104  105 2   
   108  104  114 1   
   109  106  107 1   
   110  106  112 1   
   111  106  113 1   
   112  107  108 1   
   113  107  109 1   
   114  114  115 1   
   115  114  125 1   
   116  115  116 1   
   117  115  118 1   
   118  115  126 1   
   119  116  117 2   
   120  116  134 1   
   121  118  119 1   
   122  118  127 1   
   123  118  128 1   
   124  119  120 ar  
   125  119  121 ar  
   126  120  122 ar  
   127  120  129 1   
   128  121  123 ar  
   129  121  130 1   
   130  122  124 ar  
   131  122  131 1   
   132  123  124 ar  
   133  123  132 1   
   134  124  133 1   
   135  134  135 1   
   136  134  140 1   
   137  135  136 1   
   138  135  138 1   
   139  135  141 1   
   140  136  137 2   
   141  136  148 1   
   142  138  139 1   
   143  138  142 1   
   144  138  143 1   
   145  139  140 1   
   146  139  144 1   
   147  139  145 1   
   148  140  146 1   
   149  140  147 1   
   150  148  149 1   
   151  148  157 1   
   152  149  150 1   
   153  149  152 1   
   154  149  158 1   
   155  150  151 2   
   156  150  163 1   
   157  152  153 1   
   158  152  159 1   
   159  152  160 1   
   160  153  154 1   
   161  153  161 1   
   162  153  162 1   
   163  154  155 1   
   164  154  156 1   
   165  163  164 1   
   166  163  168 1   
   167  164  165 1   
   168  164  166 1   
   169  164  167 1   
   170  170  171 1   
   171  170  172 1   
   172  173  174 1   
   173  173  175 1   
@<TRIPOS>SUBSTRUCTURE
     1 MOL         1 TEMP              0 ****  ****    0 ROOT
