@<TRIPOS>MOLECULE
MOL
  186   183     1     0     0
SMALL
resp


@<TRIPOS>ATOM
      1 C1          0.7570   -1.7760    6.4880 c3        1 MOL     -0.412535
      2 C2          0.9030   -1.7290    4.9470 c         1 MOL      0.652121
      3 O1         -0.0360   -1.9520    4.1610 o         1 MOL     -0.509238
      4 H1          0.4250   -2.7700    6.7910 hc        1 MOL      0.101413
      5 H2          1.7200   -1.5580    6.9510 hc        1 MOL      0.101413
      6 H3          0.0240   -1.0360    6.8070 hc        1 MOL      0.101413
      7 N1          2.1460   -1.3210    4.5260 n         1 MOL     -0.543630
      8 C3          2.6710   -1.2570    3.1330 c3        1 MOL      0.275813
      9 C4          3.0080   -2.7560    2.7490 c         1 MOL      0.385725
     10 O2          3.8150   -3.4330    3.3820 o         1 MOL     -0.567451
     11 C5          3.8870   -0.2450    2.9640 c3        1 MOL     -0.474949
     12 C6          4.5760   -0.3340    1.6390 c         1 MOL      0.904288
     13 O3          5.7480    0.1490    1.5280 o         1 MOL     -0.676351
     14 O4          3.8950   -0.8230    0.6830 o         1 MOL     -0.676351
     15 H4          2.8290   -1.0870    5.2380 hn        1 MOL      0.301200
     16 H5          1.8570   -0.9830    2.4640 h1        1 MOL     -0.036132
     17 H6          4.5470   -0.5370    3.7850 hc        1 MOL      0.096637
     18 H7          3.5300    0.7700    3.1280 hc        1 MOL      0.096637
     19 N2          2.3490   -3.2580    1.6790 n         1 MOL     -0.042112
     20 C7          2.6330   -4.6510    1.2180 c3        1 MOL      0.009732
     21 C8          3.7910   -4.6910    0.2020 c         1 MOL      0.397123
     22 O5          4.6760   -5.5310    0.3170 o         1 MOL     -0.539637
     23 C9          1.2560   -5.3170    0.8120 c3        1 MOL      0.291510
     24 C10         0.2280   -5.3720    1.9920 c3        1 MOL      0.067737
     25 C11         1.5240   -6.6380    0.1230 c3        1 MOL     -0.348775
     26 C12         0.4560   -6.4880    3.0180 c3        1 MOL     -0.272890
     27 H8          1.6670   -2.6690    1.2100 hn        1 MOL      0.058298
     28 H9          3.0040   -5.1800    2.0990 h1        1 MOL      0.032175
     29 H10         0.8400   -4.6600    0.0480 hc        1 MOL     -0.055670
     30 H11        -0.7260   -5.4920    1.4780 hc        1 MOL     -0.006363
     31 H12         0.2660   -4.4100    2.5190 hc        1 MOL     -0.006363
     32 H13         0.5610   -7.0910   -0.1090 hc        1 MOL      0.068018
     33 H14         2.0570   -6.5180   -0.8170 hc        1 MOL      0.068018
     34 H15         2.1030   -7.2070    0.8480 hc        1 MOL      0.068018
     35 H16         0.2930   -7.4950    2.6270 hc        1 MOL      0.052344
     36 H17         1.4630   -6.3380    3.4150 hc        1 MOL      0.052344
     37 H18        -0.3080   -6.3450    3.7790 hc        1 MOL      0.052344
     38 N3          3.5150   -4.0380   -0.9580 n         1 MOL     -0.199276
     39 C13         4.4090   -4.1480   -2.1690 c3        1 MOL     -0.120529
     40 C14         5.7850   -3.4650   -2.0100 c         1 MOL      0.443861
     41 O6          6.7570   -3.9600   -2.6220 o         1 MOL     -0.557910
     42 C15         3.8320   -3.7240   -3.5170 c3        1 MOL     -0.163413
     43 C16         3.0730   -2.3700   -3.5770 c         1 MOL      0.705421
     44 O7          3.0450   -1.7020   -2.5530 o         1 MOL     -0.686223
     45 O8          2.4790   -2.0110   -4.6260 o         1 MOL     -0.686223
     46 H19         2.7600   -3.3640   -0.8950 hn        1 MOL      0.196683
     47 H20         4.6030   -5.2070   -2.3310 h1        1 MOL      0.116418
     48 H21         3.0110   -4.3810   -3.8220 hc        1 MOL      0.049558
     49 H22         4.4970   -3.8020   -4.3800 hc        1 MOL      0.049558
     50 N4          5.9330   -2.5420   -1.0590 n         1 MOL      0.019842
     51 C17         7.2420   -2.1080   -0.6110 c3        1 MOL     -0.187457
     52 C18         7.7900   -0.8480   -1.3070 c         1 MOL      0.547957
     53 O9          8.8840   -0.8870   -1.8700 o         1 MOL     -0.599135
     54 H23         5.1250   -2.1560   -0.5890 hn        1 MOL      0.047976
     55 H24         7.9000   -2.9070   -0.9640 h1        1 MOL      0.078474
     56 H25         7.3140   -2.0400    0.4830 h1        1 MOL      0.078474
     57 N5          7.0480    0.2210   -1.3930 n         1 MOL     -0.226997
     58 C19         7.1790    1.5000   -2.0860 c3        1 MOL      0.102548
     59 C20         7.4820    2.7360   -1.1480 c         1 MOL      0.385284
     60 O10         8.1030    3.6750   -1.5950 o         1 MOL     -0.553257
     61 C21         6.0070    1.7560   -2.9960 c3        1 MOL     -0.260470
     62 C22         4.6210    1.6470   -2.3020 c         1 MOL      0.773366
     63 O11         4.4920    1.5840   -1.0810 o         1 MOL     -0.748603
     64 O12         3.6330    1.4680   -3.0000 o         1 MOL     -0.748603
     65 H26         6.1640    0.1480   -0.9080 hn        1 MOL      0.050392
     66 H27         8.1040    1.3280   -2.6350 h1        1 MOL      0.053242
     67 H28         6.0800    1.0160   -3.7850 hc        1 MOL      0.082531
     68 H29         6.1390    2.7060   -3.5200 hc        1 MOL      0.082531
     69 N6          6.9100    2.7120    0.0560 n         1 MOL     -0.112275
     70 C23         7.0260    3.6790    1.1090 c3        1 MOL     -0.092220
     71 C24         5.6530    4.2580    1.4390 c         1 MOL      0.558105
     72 O13         5.5890    5.3360    2.0740 o         1 MOL     -0.615921
     73 H30         6.2040    1.9960    0.1310 hn        1 MOL      0.094669
     74 H31         7.6940    4.4960    0.8580 h1        1 MOL      0.074162
     75 H32         7.2950    3.2000    2.0570 h1        1 MOL      0.074162
     76 N7          4.4950    3.7070    0.9680 n         1 MOL     -0.301163
     77 C25         3.1040    4.1170    1.3110 c3        1 MOL      0.050996
     78 C26         2.0850    3.0270    1.5120 c         1 MOL      0.664728
     79 O14         2.3840    1.8740    1.1720 o         1 MOL     -0.681521
     80 C27         2.6760    5.0270    0.1370 c3        1 MOL     -0.077295
     81 C28         3.2820    6.4200    0.0570 c3        1 MOL     -0.312803
     82 C29         2.2710    7.2240   -0.8020 c         1 MOL      0.669625
     83 N8          2.2530    7.0140   -2.0780 n         1 MOL     -0.800414
     84 O15         1.4600    7.9670   -0.3430 o         1 MOL     -0.589369
     85 H33         4.5650    2.8470    0.4600 hn        1 MOL      0.220041
     86 H34         3.1240    4.5710    2.3030 h1        1 MOL      0.061079
     87 H35         1.5900    5.1140    0.1640 hc        1 MOL      0.076556
     88 H36         2.8890    4.6140   -0.8490 hc        1 MOL      0.076556
     89 H37         4.2300    6.4630   -0.4940 hc        1 MOL      0.112232
     90 H38         3.3650    6.8380    1.0540 hc        1 MOL      0.112232
     91 H39         2.6900    6.2360   -2.5460 hn        1 MOL      0.357564
     92 H40         1.5310    7.5520   -2.5450 hn        1 MOL      0.357564
     93 N9          0.8560    3.3480    1.9410 n         1 MOL     -0.507093
     94 C30        -0.2890    2.3990    2.1740 c3        1 MOL     -0.010114
     95 C31        -1.4570    2.9360    1.4090 c         1 MOL      0.390156
     96 O16        -1.9770    4.0060    1.7310 o         1 MOL     -0.543151
     97 C32        -0.5140    2.3310    3.7260 c3        1 MOL      0.334515
     98 C33        -1.6710    1.4010    4.1020 c3        1 MOL     -0.205165
     99 C34         0.6800    1.9780    4.5570 c3        1 MOL     -0.205165
    100 H41         0.6680    4.3100    2.1800 hn        1 MOL      0.282309
    101 H42        -0.0340    1.3970    1.8320 h1        1 MOL      0.163017
    102 H43        -0.8240    3.3230    4.0440 hc        1 MOL     -0.063752
    103 H44        -1.3310    0.3630    4.0290 hc        1 MOL      0.031313
    104 H45        -2.0570    1.7210    5.0690 hc        1 MOL      0.031313
    105 H46        -2.4850    1.4430    3.3770 hc        1 MOL      0.031313
    106 H47         0.9570    0.9410    4.4190 hc        1 MOL      0.031313
    107 H48         1.5030    2.6720    4.3900 hc        1 MOL      0.031313
    108 H49         0.3700    2.0750    5.5980 hc        1 MOL      0.031313
    109 N10        -1.8280    2.2960    0.3170 n         1 MOL     -0.182889
    110 C35        -2.9530    2.5770   -0.5190 c3        1 MOL     -0.010339
    111 C36        -4.2450    2.0230    0.1090 c         1 MOL      0.250391
    112 O17        -4.1000    1.2180    1.0830 o         1 MOL     -0.229866
    113 C37        -2.7460    1.9500   -1.8710 c3        1 MOL     -0.088655
    114 C38        -3.7180    2.3540   -2.9710 c         1 MOL      0.590236
    115 N11        -3.6270    3.4580   -3.6590 n         1 MOL     -0.699575
    116 O18        -4.6440    1.5900   -3.1730 o         1 MOL     -0.518648
    117 H50        -1.4000    1.3860    0.2070 hn        1 MOL      0.157082
    118 H51        -3.0160    3.6670   -0.5930 h1        1 MOL      0.068062
    119 H52        -2.7580    0.8590   -1.8120 hc        1 MOL      0.068662
    120 H53        -1.8000    2.2720   -2.3110 hc        1 MOL      0.068662
    121 H54        -2.9490    4.1480   -3.3960 hn        1 MOL      0.340683
    122 H55        -4.4400    3.6280   -4.2310 hn        1 MOL      0.340683
    123 N12        -5.4230    2.4850   -0.3290 n         1 MOL     -0.371502
    124 C39        -6.7180    1.8870   -0.0460 c3        1 MOL      0.144265
    125 C40        -6.7850    0.3590   -0.1980 c         1 MOL      0.680294
    126 O19        -7.3420   -0.3690    0.6450 o         1 MOL     -0.571482
    127 C41        -7.6710    2.4850   -1.1070 c3        1 MOL     -0.112860
    128 C42        -9.0510    1.9380   -0.7430 ca        1 MOL     -0.002059
    129 C43        -9.7370    2.6490    0.2340 ca        1 MOL     -0.196191
    130 C44        -9.6140    0.7860   -1.3150 ca        1 MOL     -0.196191
    131 C45       -11.0060    2.1740    0.6700 ca        1 MOL     -0.199877
    132 C46       -10.8930    0.3440   -0.9050 ca        1 MOL     -0.199877
    133 C47       -11.5830    1.0780    0.0880 ca        1 MOL      0.286693
    134 O20       -12.7800    0.6670    0.5730 oh        1 MOL     -0.512459
    135 H56        -5.4150    3.1570   -1.0920 hn        1 MOL      0.229455
    136 H57        -7.0620    2.1470    0.9660 h1        1 MOL      0.039015
    137 H58        -7.3680    2.2270   -2.1200 hc        1 MOL      0.056217
    138 H59        -7.6510    3.5710   -0.9960 hc        1 MOL      0.056217
    139 H60        -9.3000    3.5250    0.6870 ha        1 MOL      0.140668
    140 H61        -9.0630    0.2910   -2.0970 ha        1 MOL      0.140668
    141 H62       -11.4540    2.7210    1.4860 ha        1 MOL      0.133483
    142 H63       -11.3450   -0.5650   -1.2760 ha        1 MOL      0.133483
    143 H64       -13.0740   -0.0370   -0.0050 ho        1 MOL      0.373149
    144 N13        -6.1670   -0.2730   -1.2390 n         1 MOL     -0.179503
    145 C48        -6.0450   -1.6660   -1.5390 c3        1 MOL     -0.018789
    146 C49        -5.3670   -2.4320   -0.4260 c         1 MOL      0.240741
    147 O21        -5.6600   -3.6170   -0.2730 o         1 MOL     -0.518132
    148 C50        -5.3350   -1.8410   -2.9360 c3        1 MOL      0.035300
    149 C51        -5.4300   -3.2470   -3.5740 c3        1 MOL     -0.279905
    150 C52        -4.6760   -3.3050   -4.8530 c         1 MOL      0.767508
    151 O22        -3.6650   -4.0510   -4.9540 o         1 MOL     -0.756555
    152 O23        -5.0560   -2.6540   -5.8230 o         1 MOL     -0.756555
    153 H65        -5.7000    0.3800   -1.8480 hn        1 MOL      0.058730
    154 H66        -7.0550   -2.0470   -1.6730 h1        1 MOL      0.068120
    155 H67        -4.2660   -1.6830   -2.7570 hc        1 MOL      0.030887
    156 H68        -5.7490   -1.0920   -3.6060 hc        1 MOL      0.030887
    157 H69        -6.4550   -3.4060   -3.9010 hc        1 MOL      0.044717
    158 H70        -5.2640   -4.1040   -2.9160 hc        1 MOL      0.044717
    159 N14        -4.3940   -1.8930    0.2540 n         1 MOL      0.105590
    160 C53        -3.7100   -2.5050    1.4090 c3        1 MOL     -0.117130
    161 C54        -4.3530   -2.1250    2.7400 c         1 MOL      0.437314
    162 O24        -4.3600   -2.9200    3.6920 o         1 MOL     -0.566543
    163 C55        -2.2800   -1.9210    1.3760 c3        1 MOL      0.058590
    164 C56        -1.5230   -2.1940    0.0420 c3        1 MOL     -0.190761
    165 C57        -0.2280   -1.4140    0.0950 c         1 MOL      0.662562
    166 O25         0.8420   -1.9660   -0.1800 o         1 MOL     -0.690633
    167 O26        -0.2540   -0.1360    0.0240 o         1 MOL     -0.690633
    168 H71        -4.2470   -0.9320   -0.0340 hn        1 MOL      0.050739
    169 H72        -3.6770   -3.5990    1.3340 h1        1 MOL      0.107321
    170 H73        -1.8540   -2.3850    2.2640 hc        1 MOL      0.019723
    171 H74        -2.3240   -0.8640    1.6110 hc        1 MOL      0.019723
    172 H75        -2.1640   -1.9100   -0.8010 hc        1 MOL      0.074642
    173 H76        -1.3810   -3.2580   -0.1500 hc        1 MOL      0.074642
    174 N15        -4.9460   -0.9400    2.8090 n         1 MOL     -0.010901
    175 C58        -5.6410   -0.4630    4.0270 c3        1 MOL     -0.116007
    176 H77        -5.7180   -1.2800    4.7450 h1        1 MOL      0.055763
    177 H78        -5.0770    0.3580    4.4700 h1        1 MOL      0.055763
    178 H79        -6.6410   -0.1160    3.7640 h1        1 MOL      0.055763
    179 H80        -4.8440   -0.3550    2.0040 hn        1 MOL     -0.093294
    180 Ca1         2.2980    0.1620   -0.9840 Ca        1 MOL      1.771606
    181 O27         0.6420   -0.3740   -2.9590 oh        1 MOL     -0.908522
    182 H81         1.2580   -1.0710   -3.1690 ho        1 MOL      0.433204
    183 H82        -0.2200   -0.7820   -3.0580 ho        1 MOL      0.433204
    184 O28         0.9480    2.3030   -2.0700 oh        1 MOL     -0.908522
    185 H83         0.4440    1.6720   -2.5880 ho        1 MOL      0.433204
    186 H84         1.4050    2.8270   -2.7190 ho        1 MOL      0.433204
@<TRIPOS>BOND
     1    1    2 1   
     2    1    4 1   
     3    1    5 1   
     4    1    6 1   
     5    2    3 2   
     6    2    7 1   
     7    7    8 1   
     8    7   15 1   
     9    8    9 1   
    10    8   11 1   
    11    8   16 1   
    12    9   10 2   
    13    9   19 1   
    14   11   12 1   
    15   11   17 1   
    16   11   18 1   
    17   12   13 1   
    18   12   14 1   
    19   19   20 1   
    20   19   27 1   
    21   20   21 1   
    22   20   23 1   
    23   20   28 1   
    24   21   22 2   
    25   21   38 1   
    26   23   24 1   
    27   23   25 1   
    28   23   29 1   
    29   24   26 1   
    30   24   30 1   
    31   24   31 1   
    32   25   32 1   
    33   25   33 1   
    34   25   34 1   
    35   26   35 1   
    36   26   36 1   
    37   26   37 1   
    38   38   39 1   
    39   38   46 1   
    40   39   40 1   
    41   39   42 1   
    42   39   47 1   
    43   40   41 2   
    44   40   50 1   
    45   42   43 1   
    46   42   48 1   
    47   42   49 1   
    48   43   44 1   
    49   43   45 1   
    50   50   51 1   
    51   50   54 1   
    52   51   52 1   
    53   51   55 1   
    54   51   56 1   
    55   52   53 2   
    56   52   57 1   
    57   57   58 1   
    58   57   65 1   
    59   58   59 1   
    60   58   61 1   
    61   58   66 1   
    62   59   60 2   
    63   59   69 1   
    64   61   62 1   
    65   61   67 1   
    66   61   68 1   
    67   62   63 1   
    68   62   64 1   
    69   69   70 1   
    70   69   73 1   
    71   70   71 1   
    72   70   74 1   
    73   70   75 1   
    74   71   72 2   
    75   71   76 1   
    76   76   77 1   
    77   76   85 1   
    78   77   78 1   
    79   77   80 1   
    80   77   86 1   
    81   78   79 2   
    82   78   93 1   
    83   80   81 1   
    84   80   87 1   
    85   80   88 1   
    86   81   82 1   
    87   81   89 1   
    88   81   90 1   
    89   82   83 1   
    90   82   84 2   
    91   83   91 1   
    92   83   92 1   
    93   93   94 1   
    94   93  100 1   
    95   94   95 1   
    96   94   97 1   
    97   94  101 1   
    98   95   96 2   
    99   95  109 1   
   100   97   98 1   
   101   97   99 1   
   102   97  102 1   
   103   98  103 1   
   104   98  104 1   
   105   98  105 1   
   106   99  106 1   
   107   99  107 1   
   108   99  108 1   
   109  109  110 1   
   110  109  117 1   
   111  110  111 1   
   112  110  113 1   
   113  110  118 1   
   114  111  112 2   
   115  111  123 1   
   116  113  114 1   
   117  113  119 1   
   118  113  120 1   
   119  114  115 1   
   120  114  116 2   
   121  115  121 1   
   122  115  122 1   
   123  123  124 1   
   124  123  135 1   
   125  124  125 1   
   126  124  127 1   
   127  124  136 1   
   128  125  126 2   
   129  125  144 1   
   130  127  128 1   
   131  127  137 1   
   132  127  138 1   
   133  128  129 ar  
   134  128  130 ar  
   135  129  131 ar  
   136  129  139 1   
   137  130  132 ar  
   138  130  140 1   
   139  131  133 ar  
   140  131  141 1   
   141  132  133 ar  
   142  132  142 1   
   143  133  134 1   
   144  134  143 1   
   145  144  145 1   
   146  144  153 1   
   147  145  146 1   
   148  145  148 1   
   149  145  154 1   
   150  146  147 2   
   151  146  159 1   
   152  148  149 1   
   153  148  155 1   
   154  148  156 1   
   155  149  150 1   
   156  149  157 1   
   157  149  158 1   
   158  150  151 1   
   159  150  152 1   
   160  159  160 1   
   161  159  168 1   
   162  160  161 1   
   163  160  163 1   
   164  160  169 1   
   165  161  162 2   
   166  161  174 1   
   167  163  164 1   
   168  163  170 1   
   169  163  171 1   
   170  164  165 1   
   171  164  172 1   
   172  164  173 1   
   173  165  166 1   
   174  165  167 1   
   175  174  175 1   
   176  174  179 1   
   177  175  176 1   
   178  175  177 1   
   179  175  178 1   
   180  181  182 1   
   181  181  183 1   
   182  184  185 1   
   183  184  186 1   
@<TRIPOS>SUBSTRUCTURE
     1 MOL         1 TEMP              0 ****  ****    0 ROOT
