@<TRIPOS>MOLECULE
MOL
  179   176     1     0     0
SMALL
resp


@<TRIPOS>ATOM
      1 C1          2.7440    1.9960    5.3590 c3        1 MOL     -0.249949
      2 C2          2.0060    2.1120    4.0270 c         1 MOL      0.730146
      3 O1          2.5940    2.1760    2.9580 o         1 MOL     -0.635365
      4 H1          2.3780    2.7600    6.0440 hc        1 MOL      0.068328
      5 H2          2.5670    1.0100    5.7890 hc        1 MOL      0.068328
      6 H3          3.8130    2.1360    5.1970 hc        1 MOL      0.068328
      7 N1          0.6420    2.1490    4.0300 n         1 MOL     -0.605960
      8 C3         -0.2060    2.2990    2.9060 c3        1 MOL      0.229251
      9 C4         -0.2610    3.7090    2.3810 c         1 MOL      0.455309
     10 O2         -0.5850    4.6810    3.0750 o         1 MOL     -0.547923
     11 C5         -1.5930    1.6290    3.1650 c3        1 MOL     -0.405031
     12 C6         -2.5640    1.5170    1.9970 c         1 MOL      0.793469
     13 O3         -3.7230    1.1170    2.1820 o         1 MOL     -0.699479
     14 O4         -1.9930    1.6300    0.8580 o         1 MOL     -0.699479
     15 H4          0.2830    2.0950    4.9760 hn        1 MOL      0.308675
     16 H5          0.2650    1.7080    2.1300 h1        1 MOL      0.008247
     17 H6         -2.0600    2.3240    3.8590 hc        1 MOL      0.102203
     18 H7         -1.4100    0.6400    3.5750 hc        1 MOL      0.102203
     19 N2          0.3070    3.8690    1.1770 n         1 MOL     -0.080609
     20 C7          0.6890    5.0960    0.5410 c3        1 MOL     -0.039542
     21 C8         -0.4580    5.7210   -0.1890 c         1 MOL      0.423319
     22 O5         -0.7610    6.9180    0.0010 o         1 MOL     -0.536970
     23 C9          1.9120    4.9150   -0.4270 c3        1 MOL     -0.091346
     24 C10         3.2020    5.0920    0.2460 c3        1 MOL     -0.025552
     25 C11         4.4560    4.9100   -0.6130 c3        1 MOL      0.021065
     26 C12         4.7450    6.1190   -1.5210 c3        1 MOL     -0.062497
     27 N3          5.0510    7.4150   -0.7830 n4        1 MOL     -0.280964
     28 H8          0.6100    2.9770    0.8100 hn        1 MOL      0.167235
     29 H9          0.8650    5.8790    1.2720 h1        1 MOL      0.069781
     30 H10         1.9000    5.7510   -1.1310 hc        1 MOL      0.034467
     31 H11         1.8650    3.9620   -0.9520 hc        1 MOL      0.034467
     32 H12         3.2030    4.2240    0.9020 hc        1 MOL      0.029419
     33 H13         3.2060    5.9470    0.9200 hc        1 MOL      0.029419
     34 H14         4.3790    4.0320   -1.2370 hc        1 MOL      0.044873
     35 H15         5.3140    4.6860    0.0250 hc        1 MOL      0.044873
     36 H16         3.8140    6.2580   -2.0610 hx        1 MOL      0.108367
     37 H17         5.5620    5.8720   -2.1950 hx        1 MOL      0.108367
     38 H18         4.5760    7.5320    0.1030 hn        1 MOL      0.304660
     39 H19         5.9950    7.4960   -0.4320 hn        1 MOL      0.304660
     40 H20         4.9210    8.2050   -1.4040 hn        1 MOL      0.304660
     41 N4         -1.1680    4.9530   -1.0600 n         1 MOL     -0.371391
     42 C13        -2.3570    5.3560   -1.8300 c3        1 MOL      0.026379
     43 C14        -3.6520    5.1300   -1.0510 c         1 MOL      0.465885
     44 O6         -4.7380    5.3700   -1.5930 o         1 MOL     -0.522772
     45 C15        -2.2680    4.6840   -3.2730 c3        1 MOL     -0.203889
     46 C16        -1.9450    3.2120   -3.2730 c         1 MOL      0.785624
     47 O7         -1.4140    2.7300   -4.2970 o         1 MOL     -0.723970
     48 O8         -2.2620    2.5390   -2.2800 o         1 MOL     -0.723970
     49 H21        -0.8210    4.0090   -1.1170 hn        1 MOL      0.211113
     50 H22        -2.3110    6.4370   -1.9710 h1        1 MOL      0.109604
     51 H23        -1.5740    5.2860   -3.8650 hc        1 MOL      0.063192
     52 H24        -3.2490    4.8240   -3.7000 hc        1 MOL      0.063192
     53 N5         -3.5490    4.5760    0.2370 n         1 MOL     -0.356103
     54 C17        -4.7290    4.2010    0.9950 c3        1 MOL     -0.006512
     55 C18        -5.5860    3.0550    0.4680 c         1 MOL      0.464473
     56 O9         -6.7050    3.0110    0.9300 o         1 MOL     -0.570121
     57 H25        -2.5980    4.4180    0.5440 hn        1 MOL      0.255647
     58 H26        -5.3940    5.0310    1.2240 h1        1 MOL      0.071690
     59 H27        -4.3900    3.9810    2.0120 h1        1 MOL      0.071690
     60 N6         -5.1530    2.1740   -0.4110 n         1 MOL     -0.073942
     61 C19        -5.9730    1.2530   -1.1920 c3        1 MOL     -0.130703
     62 C20        -6.4810    0.0610   -0.3100 c         1 MOL      0.303973
     63 O10        -7.1940   -0.7130   -0.8830 o         1 MOL     -0.428147
     64 C21        -5.3270    0.8500   -2.5670 c3        1 MOL     -0.251394
     65 C22        -4.4550   -0.3490   -2.4660 c         1 MOL      0.573180
     66 N7         -4.7520   -1.3340   -3.1630 n         1 MOL     -0.687163
     67 O11        -3.6280   -0.4740   -1.5770 o         1 MOL     -0.636166
     68 H28        -4.1750    2.0080   -0.5810 hn        1 MOL      0.098326
     69 H29        -6.9240    1.7430   -1.4160 h1        1 MOL      0.150760
     70 H30        -4.8030    1.6660   -3.0570 hc        1 MOL      0.124238
     71 H31        -6.1690    0.5840   -3.2090 hc        1 MOL      0.124238
     72 H32        -5.4440   -1.3630   -3.8950 hn        1 MOL      0.365221
     73 H33        -4.3380   -2.2200   -2.8990 hn        1 MOL      0.365221
     74 N8         -6.0570   -0.0850    0.9590 n         1 MOL     -0.132388
     75 C23        -6.4490   -1.1920    1.8310 c3        1 MOL     -0.354604
     76 C24        -5.4220   -2.3080    1.9980 c         1 MOL      0.648233
     77 O12        -5.6850   -3.3240    2.6040 o         1 MOL     -0.561650
     78 H34        -5.3170    0.5060    1.3070 hn        1 MOL      0.300979
     79 H35        -7.3210   -1.7120    1.4370 h1        1 MOL      0.155521
     80 H36        -6.7250   -0.7530    2.7920 h1        1 MOL      0.155521
     81 N9         -4.2830   -2.1420    1.3600 n         1 MOL     -0.493946
     82 C25        -3.2840   -3.2180    1.0970 c3        1 MOL      0.329624
     83 C26        -1.8690   -2.6390    1.0870 c         1 MOL      0.607150
     84 O13        -1.6560   -1.5690    0.5400 o         1 MOL     -0.644876
     85 C27        -3.5910   -4.0390   -0.1900 c3        1 MOL      0.369053
     86 C28        -4.9260   -4.6250   -0.3810 ca        1 MOL     -0.116367
     87 C29        -5.9350   -3.7700   -0.9210 ca        1 MOL     -0.187405
     88 C30        -5.2000   -5.9320   -0.0380 ca        1 MOL     -0.187405
     89 C31        -7.2610   -4.2240   -1.1840 ca        1 MOL     -0.156509
     90 C32        -6.4820   -6.3940   -0.3610 ca        1 MOL     -0.156509
     91 C33        -7.5330   -5.6030   -0.9180 ca        1 MOL      0.260569
     92 O14        -8.7500   -6.1370   -1.1630 oh        1 MOL     -0.454652
     93 H37        -3.9280   -1.2370    1.0930 hn        1 MOL      0.227219
     94 H38        -3.4380   -3.9040    1.9340 h1        1 MOL     -0.042181
     95 H39        -2.9730   -4.9290   -0.1310 hc        1 MOL     -0.110323
     96 H40        -3.3110   -3.4900   -1.0880 hc        1 MOL     -0.110323
     97 H41        -5.6820   -2.7240   -1.0250 ha        1 MOL      0.138027
     98 H42        -4.4230   -6.5860    0.3270 ha        1 MOL      0.138027
     99 H43        -7.9800   -3.5520   -1.6330 ha        1 MOL      0.107290
    100 H44        -6.5730   -7.4630   -0.2090 ha        1 MOL      0.107290
    101 H45        -8.8100   -7.0930   -1.1460 ho        1 MOL      0.353368
    102 N10        -0.9470   -3.3700    1.6170 n         1 MOL     -0.732890
    103 C34         0.5060   -3.1110    1.6330 c3        1 MOL      0.236688
    104 C35         1.2950   -4.0440    0.7220 c         1 MOL      0.441618
    105 O15         1.2710   -5.2810    0.8380 o         1 MOL     -0.532028
    106 C36         0.9620   -3.1710    3.1050 c3        1 MOL      0.259544
    107 C37         0.1840   -2.1320    3.9300 c3        1 MOL      0.112512
    108 C38         2.4490   -2.9150    3.0710 c3        1 MOL     -0.390365
    109 C39         0.4430   -2.1770    5.4650 c3        1 MOL     -0.309764
    110 H46        -1.2740   -4.2410    2.0120 hn        1 MOL      0.318069
    111 H47         0.6500   -2.0630    1.3820 h1        1 MOL      0.021065
    112 H48         0.8220   -4.1940    3.4560 hc        1 MOL     -0.034131
    113 H49        -0.8870   -2.2860    3.8120 hc        1 MOL      0.007374
    114 H50         0.3810   -1.1420    3.5250 hc        1 MOL      0.007374
    115 H51         2.6460   -1.9410    2.6320 hc        1 MOL      0.082308
    116 H52         2.7820   -3.0400    4.1000 hc        1 MOL      0.082308
    117 H53         2.9770   -3.7240    2.5530 hc        1 MOL      0.082308
    118 H54        -0.0390   -1.3080    5.9030 hc        1 MOL      0.070924
    119 H55         0.1020   -3.1010    5.9340 hc        1 MOL      0.070924
    120 H56         1.5230   -2.1230    5.6200 hc        1 MOL      0.070924
    121 N11         2.0120   -3.4360   -0.2480 n         1 MOL     -0.123780
    122 C40         2.9550   -4.0480   -1.1320 c3        1 MOL     -0.252625
    123 C41         4.4330   -3.9900   -0.6450 c         1 MOL      0.633220
    124 O16         4.8420   -3.2020    0.1790 o         1 MOL     -0.515521
    125 C42         2.9290   -3.3200   -2.4910 c3        1 MOL     -0.003028
    126 O17         3.0890   -1.9000   -2.4790 oh        1 MOL     -0.538495
    127 H57         1.7770   -2.4880   -0.5110 hn        1 MOL      0.228539
    128 H58         2.7440   -5.1080   -1.2850 h1        1 MOL      0.099662
    129 H59         2.0050   -3.4700   -3.0460 h1        1 MOL      0.079350
    130 H60         3.6560   -3.8230   -3.1110 h1        1 MOL      0.079350
    131 H61         2.3020   -1.5230   -2.0750 ho        1 MOL      0.358264
    132 N12         5.3400   -4.6990   -1.3180 n         1 MOL     -0.496080
    133 C43         6.7820   -4.6110   -0.9740 c3        1 MOL      0.113245
    134 C44         7.4640   -3.2100   -1.2070 c         1 MOL      0.453007
    135 O18         8.2300   -2.6840   -0.4270 o         1 MOL     -0.509756
    136 C45         7.5480   -5.7080   -1.8200 c3        1 MOL     -0.314245
    137 H62         5.0280   -5.1970   -2.1310 hn        1 MOL      0.290700
    138 H63         6.9290   -4.9200    0.0650 h1        1 MOL      0.102873
    139 H64         8.5690   -5.7040   -1.4400 hc        1 MOL      0.096015
    140 H65         7.0590   -6.6530   -1.5460 hc        1 MOL      0.096015
    141 H66         7.6150   -5.4600   -2.8770 hc        1 MOL      0.096015
    142 N13         7.1790   -2.5490   -2.3070 n         1 MOL     -0.331049
    143 C46         7.5760   -1.1490   -2.5680 c3        1 MOL      0.060645
    144 C47         7.1560   -0.2310   -1.4200 c         1 MOL      0.397238
    145 O19         7.8370    0.7110   -1.0950 o         1 MOL     -0.513235
    146 C48         6.9650   -0.6600   -3.9100 c3        1 MOL     -0.354138
    147 H67         6.6080   -2.9590   -3.0320 hn        1 MOL      0.259555
    148 H68         8.6610   -1.1480   -2.5860 h1        1 MOL      0.092629
    149 H69         5.9000   -0.9020   -3.8670 hc        1 MOL      0.102969
    150 H70         7.1300    0.4040   -4.0610 hc        1 MOL      0.102969
    151 H71         7.3590   -1.2580   -4.7280 hc        1 MOL      0.102969
    152 N14         5.9440   -0.3800   -0.8680 n         1 MOL      0.013211
    153 C49         5.4700    0.4220    0.2730 c3        1 MOL     -0.458803
    154 C50         6.2280    0.1260    1.5830 c         1 MOL      0.579864
    155 O20         6.5770    1.0770    2.2670 o         1 MOL     -0.527856
    156 C51         3.9510    0.2940    0.3400 c3        1 MOL      0.279238
    157 C52         3.2480    0.9330   -0.8130 c3        1 MOL      0.075946
    158 C53         1.7010    0.7180   -0.8220 c         1 MOL      0.549382
    159 O21         1.2480   -0.4700   -0.8480 o         1 MOL     -0.633415
    160 O22         0.8830    1.6540   -0.7500 o         1 MOL     -0.633415
    161 H72         5.2800   -1.0260   -1.2690 hn        1 MOL      0.173450
    162 H73         5.6930    1.4680    0.0600 h1        1 MOL      0.157265
    163 H74         3.5430    0.5900    1.3070 hc        1 MOL     -0.037309
    164 H75         3.6210   -0.7420    0.3700 hc        1 MOL     -0.037309
    165 H76         3.7380    0.6070   -1.7330 hc        1 MOL     -0.052503
    166 H77         3.4980    1.9890   -0.7270 hc        1 MOL     -0.052503
    167 N15         6.5760   -1.1790    1.8040 n         1 MOL     -0.194295
    168 C54         7.3120   -1.5350    3.0730 c3        1 MOL     -0.389881
    169 H78         7.1350   -0.7640    3.8230 h1        1 MOL      0.144034
    170 H79         6.9510   -2.4930    3.4470 h1        1 MOL      0.144034
    171 H80         8.3800   -1.6030    2.8670 h1        1 MOL      0.144034
    172 H81         6.3830   -1.8950    1.1160 hn        1 MOL      0.198347
    173 Ca1        -1.2150    0.3580   -1.1620 Ca        1 MOL      1.658947
    174 O23        -0.0680    0.3370   -3.6140 oh        1 MOL     -0.806342
    175 H82        -0.0990   -0.3320   -4.2970 ho        1 MOL      0.388648
    176 H83        -0.3730    1.1360   -4.0330 ho        1 MOL      0.388648
    177 O24        -1.4060   -2.0950   -2.4640 oh        1 MOL     -0.806342
    178 H84        -1.8700   -1.8960   -3.2770 ho        1 MOL      0.388648
    179 H85        -1.0180   -2.9600   -2.6150 ho        1 MOL      0.388648
@<TRIPOS>BOND
     1    1    2 1   
     2    1    4 1   
     3    1    5 1   
     4    1    6 1   
     5    2    3 2   
     6    2    7 1   
     7    7    8 1   
     8    7   15 1   
     9    8    9 1   
    10    8   11 1   
    11    8   16 1   
    12    9   10 2   
    13    9   19 1   
    14   11   12 1   
    15   11   17 1   
    16   11   18 1   
    17   12   13 1   
    18   12   14 1   
    19   19   20 1   
    20   19   28 1   
    21   20   21 1   
    22   20   23 1   
    23   20   29 1   
    24   21   22 2   
    25   21   41 1   
    26   23   24 1   
    27   23   30 1   
    28   23   31 1   
    29   24   25 1   
    30   24   32 1   
    31   24   33 1   
    32   25   26 1   
    33   25   34 1   
    34   25   35 1   
    35   26   27 1   
    36   26   36 1   
    37   26   37 1   
    38   27   38 1   
    39   27   39 1   
    40   27   40 1   
    41   41   42 1   
    42   41   49 1   
    43   42   43 1   
    44   42   45 1   
    45   42   50 1   
    46   43   44 2   
    47   43   53 1   
    48   45   46 1   
    49   45   51 1   
    50   45   52 1   
    51   46   47 1   
    52   46   48 1   
    53   53   54 1   
    54   53   57 1   
    55   54   55 1   
    56   54   58 1   
    57   54   59 1   
    58   55   56 2   
    59   55   60 1   
    60   60   61 1   
    61   60   68 1   
    62   61   62 1   
    63   61   64 1   
    64   61   69 1   
    65   62   63 2   
    66   62   74 1   
    67   64   65 1   
    68   64   70 1   
    69   64   71 1   
    70   65   66 1   
    71   65   67 2   
    72   66   72 1   
    73   66   73 1   
    74   74   75 1   
    75   74   78 1   
    76   75   76 1   
    77   75   79 1   
    78   75   80 1   
    79   76   77 2   
    80   76   81 1   
    81   81   82 1   
    82   81   93 1   
    83   82   83 1   
    84   82   85 1   
    85   82   94 1   
    86   83   84 2   
    87   83  102 1   
    88   85   86 1   
    89   85   95 1   
    90   85   96 1   
    91   86   87 ar  
    92   86   88 ar  
    93   87   89 ar  
    94   87   97 1   
    95   88   90 ar  
    96   88   98 1   
    97   89   91 ar  
    98   89   99 1   
    99   90   91 ar  
   100   90  100 1   
   101   91   92 1   
   102   92  101 1   
   103  102  103 1   
   104  102  110 1   
   105  103  104 1   
   106  103  106 1   
   107  103  111 1   
   108  104  105 2   
   109  104  121 1   
   110  106  107 1   
   111  106  108 1   
   112  106  112 1   
   113  107  109 1   
   114  107  113 1   
   115  107  114 1   
   116  108  115 1   
   117  108  116 1   
   118  108  117 1   
   119  109  118 1   
   120  109  119 1   
   121  109  120 1   
   122  121  122 1   
   123  121  127 1   
   124  122  123 1   
   125  122  125 1   
   126  122  128 1   
   127  123  124 2   
   128  123  132 1   
   129  125  126 1   
   130  125  129 1   
   131  125  130 1   
   132  126  131 1   
   133  132  133 1   
   134  132  137 1   
   135  133  134 1   
   136  133  136 1   
   137  133  138 1   
   138  134  135 2   
   139  134  142 1   
   140  136  139 1   
   141  136  140 1   
   142  136  141 1   
   143  142  143 1   
   144  142  147 1   
   145  143  144 1   
   146  143  146 1   
   147  143  148 1   
   148  144  145 2   
   149  144  152 1   
   150  146  149 1   
   151  146  150 1   
   152  146  151 1   
   153  152  153 1   
   154  152  161 1   
   155  153  154 1   
   156  153  156 1   
   157  153  162 1   
   158  154  155 2   
   159  154  167 1   
   160  156  157 1   
   161  156  163 1   
   162  156  164 1   
   163  157  158 1   
   164  157  165 1   
   165  157  166 1   
   166  158  159 1   
   167  158  160 1   
   168  167  168 1   
   169  167  172 1   
   170  168  169 1   
   171  168  170 1   
   172  168  171 1   
   173  174  175 1   
   174  174  176 1   
   175  177  178 1   
   176  177  179 1   
@<TRIPOS>SUBSTRUCTURE
     1 MOL         1 TEMP              0 ****  ****    0 ROOT
