@<TRIPOS>MOLECULE
MOL
  172   171     1     0     0
SMALL
resp


@<TRIPOS>ATOM
      1 C1          0.3080   -3.8430    5.8800 c3        1 MOL     -0.377978
      2 C2          0.8290   -3.8210    4.4550 c         1 MOL      0.793980
      3 O1          0.2470   -4.2030    3.4890 o         1 MOL     -0.598258
      4 H1         -0.7130   -4.2230    5.8870 hc        1 MOL      0.092523
      5 H2          0.9400   -4.4910    6.4880 hc        1 MOL      0.092523
      6 H3          0.3230   -2.8330    6.2880 hc        1 MOL      0.092523
      7 N1          2.0010   -3.1900    4.1450 n         1 MOL     -0.671157
      8 C3          2.4080   -2.7330    2.8340 c3        1 MOL      0.199027
      9 C4          2.7410   -3.9630    1.9170 c         1 MOL      0.616409
     10 O2          3.4030   -4.8480    2.3370 o         1 MOL     -0.611840
     11 C5          3.5210   -1.6710    2.9400 c3        1 MOL     -0.035846
     12 C6          3.9510   -0.8420    1.7060 c         1 MOL      0.552419
     13 O3          3.4490   -1.1130    0.6050 o         1 MOL     -0.670348
     14 O4          4.7590    0.0690    1.8510 o         1 MOL     -0.670348
     15 H4          2.4680   -2.7960    4.9450 hn        1 MOL      0.283912
     16 H5          1.5950   -2.2480    2.2800 h1        1 MOL     -0.014057
     17 H6          4.3760   -2.1590    3.4080 hc        1 MOL      0.014824
     18 H7          3.2520   -0.9880    3.7390 hc        1 MOL      0.014824
     19 N2          2.3310   -3.9140    0.6440 n         1 MOL     -0.379628
     20 C7          2.4980   -5.1220   -0.2320 c3        1 MOL      0.409629
     21 C8          3.5900   -4.9810   -1.3380 c         1 MOL      0.334749
     22 O5          4.4150   -5.9080   -1.5690 o         1 MOL     -0.575537
     23 C9          1.1480   -5.5540   -0.7410 c3        1 MOL     -0.493650
     24 H8          1.6600   -3.2300    0.3210 hn        1 MOL      0.218328
     25 H9          2.9640   -5.9580    0.2830 h1        1 MOL     -0.011924
     26 H10         0.4880   -5.5820    0.1300 hc        1 MOL      0.116313
     27 H11         0.7400   -4.8420   -1.4520 hc        1 MOL      0.116313
     28 H12         1.2330   -6.5730   -1.1080 hc        1 MOL      0.116313
     29 N3          3.6880   -3.7890   -1.9550 n         1 MOL     -0.246397
     30 C10         4.8330   -3.4010   -2.8260 c3        1 MOL     -0.029387
     31 C11         5.8490   -2.7790   -1.9440 c         1 MOL      0.488897
     32 O6          6.8610   -2.3580   -2.4960 o         1 MOL     -0.556050
     33 C12         4.3460   -2.5720   -4.0560 c3        1 MOL     -0.076549
     34 C13         3.4270   -1.3290   -3.7690 c         1 MOL      0.691810
     35 O7          2.7620   -1.3180   -2.7010 o         1 MOL     -0.676041
     36 O8          3.2650   -0.5180   -4.6890 o         1 MOL     -0.676041
     37 H13         3.0200   -3.0410   -1.8090 hn        1 MOL      0.179046
     38 H14         5.1760   -4.3570   -3.2300 h1        1 MOL      0.095954
     39 H15         3.7760   -3.2550   -4.7000 hc        1 MOL      0.010839
     40 H16         5.2180   -2.2130   -4.6000 hc        1 MOL      0.010839
     41 N4          5.6060   -2.6100   -0.5890 n         1 MOL     -0.191957
     42 C14         6.6560   -2.2610    0.3660 c3        1 MOL     -0.172074
     43 C15         7.3290   -0.8910    0.1800 c         1 MOL      0.539072
     44 O9          8.2770   -0.5610    0.8740 o         1 MOL     -0.591960
     45 H17         4.7100   -2.9000   -0.2230 hn        1 MOL      0.156525
     46 H18         7.4550   -3.0010    0.4360 h1        1 MOL      0.097152
     47 H19         6.1380   -2.1930    1.3260 h1        1 MOL      0.097152
     48 N5          6.7240   -0.0850   -0.6900 n         1 MOL     -0.250533
     49 C16         7.1530    1.2780   -1.1230 c3        1 MOL     -0.058929
     50 C17         6.9300    2.4400   -0.1320 c         1 MOL      0.393626
     51 O10         7.4950    3.4790   -0.3300 o         1 MOL     -0.551365
     52 C18         6.2720    1.5830   -2.3660 c3        1 MOL     -0.282879
     53 C19         4.8810    2.0680   -2.0670 c         1 MOL      0.739011
     54 N6          4.5440    3.3440   -2.3340 n         1 MOL     -0.776445
     55 O11         4.0830    1.4500   -1.4180 o         1 MOL     -0.634784
     56 H20         5.8500   -0.4500   -1.0430 hn        1 MOL      0.169958
     57 H21         8.1870    1.2670   -1.4720 h1        1 MOL      0.137916
     58 H22         6.0500    0.7970   -3.0810 hc        1 MOL      0.101163
     59 H23         6.8540    2.2280   -3.0110 hc        1 MOL      0.101163
     60 H24         5.0530    3.8370   -3.0490 hn        1 MOL      0.317932
     61 H25         3.8090    3.8040   -1.8140 hn        1 MOL      0.317932
     62 N7          6.2920    2.1550    0.9720 n         1 MOL     -0.057249
     63 C20         6.0500    3.1330    2.0460 c3        1 MOL     -0.300837
     64 C21         4.9970    4.2160    1.8390 c         1 MOL      0.596563
     65 O12         5.0940    5.3060    2.4340 o         1 MOL     -0.588361
     66 H26         5.8150    1.2600    1.0400 hn        1 MOL      0.232901
     67 H27         7.0080    3.5680    2.3440 h1        1 MOL      0.122318
     68 H28         5.7150    2.5890    2.9310 h1        1 MOL      0.122318
     69 N8          4.0080    3.9050    1.0560 n         1 MOL     -0.300294
     70 C22         2.6870    4.5450    1.0060 c3        1 MOL     -0.046677
     71 C23         1.5360    3.4700    1.0930 c         1 MOL      0.545389
     72 O13         1.8260    2.3050    0.7930 o         1 MOL     -0.493285
     73 C24         2.4770    5.5030   -0.0880 c3        1 MOL      0.300903
     74 C25         3.4700    6.6940   -0.1100 c3        1 MOL     -0.400590
     75 O14         2.4830    4.8350   -1.2620 oh        1 MOL     -0.579843
     76 H29         4.0780    2.9680    0.6720 hn        1 MOL      0.263915
     77 H30         2.5420    5.1530    1.9020 h1        1 MOL      0.056823
     78 H31         1.5450    6.0600   -0.1060 h1        1 MOL      0.030223
     79 H32         2.7710    5.4490   -1.9400 ho        1 MOL      0.404520
     80 H33         4.4730    6.3280   -0.3350 hc        1 MOL      0.108775
     81 H34         3.1970    7.5130   -0.7760 hc        1 MOL      0.108775
     82 H35         3.5790    7.1260    0.8840 hc        1 MOL      0.108775
     83 N9          0.2840    3.8430    1.4770 n         1 MOL     -0.528264
     84 C26        -0.8500    2.9670    1.4780 c3        1 MOL     -0.077717
     85 C27        -1.6220    3.0400    0.1450 c         1 MOL      0.573594
     86 O15        -1.8780    4.1610   -0.3510 o         1 MOL     -0.599943
     87 C28        -1.8070    3.1530    2.6280 c3        1 MOL      0.282916
     88 C29        -1.0190    3.4010    3.9760 c3        1 MOL      0.097829
     89 C30        -2.6450    1.8770    2.7410 c3        1 MOL     -0.356479
     90 C31        -1.8120    3.7070    5.2430 c3        1 MOL     -0.280819
     91 H36         0.1860    4.7840    1.8360 hn        1 MOL      0.281344
     92 H37        -0.4290    1.9690    1.5990 h1        1 MOL      0.108380
     93 H38        -2.5060    3.9810    2.5420 hc        1 MOL     -0.055121
     94 H39        -0.3290    4.2270    3.8390 hc        1 MOL      0.001841
     95 H40        -0.4370    2.4910    4.1270 hc        1 MOL      0.001841
     96 H41        -1.9680    1.0240    2.7990 hc        1 MOL      0.064783
     97 H42        -3.1820    1.9320    3.6910 hc        1 MOL      0.064783
     98 H43        -3.3680    1.7580    1.9380 hc        1 MOL      0.064783
     99 H44        -2.8380    3.9160    4.9320 hc        1 MOL      0.061681
    100 H45        -1.9150    2.8830    5.9450 hc        1 MOL      0.061681
    101 H46        -1.3750    4.6260    5.6570 hc        1 MOL      0.061681
    102 N10        -1.9830    1.9010   -0.4470 n         1 MOL     -0.166633
    103 C32        -2.9790    1.6980   -1.4860 c3        1 MOL      0.067238
    104 C33        -4.3520    1.2830   -0.9380 c         1 MOL      0.226605
    105 O16        -4.4190    0.5170    0.0530 o         1 MOL     -0.236896
    106 C34        -2.5840    0.6850   -2.5890 c3        1 MOL     -0.356591
    107 C35        -1.1880    0.9340   -2.9610 c         1 MOL      0.813295
    108 O17        -0.7310    2.0270   -3.3420 o         1 MOL     -0.716921
    109 O18        -0.3270    0.0200   -2.6500 o         1 MOL     -0.716921
    110 H47        -1.7140    1.0500    0.0310 hn        1 MOL      0.068148
    111 H48        -3.0940    2.6780   -1.9420 h1        1 MOL      0.057341
    112 H49        -3.3080    0.7250   -3.4010 hc        1 MOL      0.076528
    113 H50        -2.7360   -0.2940   -2.1390 hc        1 MOL      0.076528
    114 N11        -5.4370    1.6020   -1.6010 n         1 MOL     -0.325181
    115 C36        -6.7730    1.2200   -1.1790 c3        1 MOL      0.081978
    116 C37        -6.9450   -0.2270   -0.7770 c         1 MOL      0.372919
    117 O19        -7.2770   -0.5440    0.3930 o         1 MOL     -0.479675
    118 C38        -7.8370    1.6910   -2.1940 c3        1 MOL     -0.271810
    119 C39        -9.1780    1.6510   -1.4880 ca        1 MOL      0.149545
    120 C40       -10.1740    0.6880   -1.8250 ca        1 MOL     -0.226082
    121 C41        -9.5350    2.6590   -0.5220 ca        1 MOL     -0.226082
    122 C42       -11.4240    0.7490   -1.2820 ca        1 MOL     -0.027078
    123 C43       -10.8700    2.7160    0.0030 ca        1 MOL     -0.027078
    124 C44       -11.8250    1.7810   -0.3760 ca        1 MOL     -0.201956
    125 H51        -5.3810    2.1610   -2.4440 hn        1 MOL      0.289005
    126 H52        -6.9170    1.8730   -0.3120 h1        1 MOL      0.099166
    127 H53        -7.7750    1.1020   -3.1010 hc        1 MOL      0.099750
    128 H54        -7.5510    2.7060   -2.4750 hc        1 MOL      0.099750
    129 H55        -9.9120   -0.1640   -2.4410 ha        1 MOL      0.135127
    130 H56        -8.8020    3.3950   -0.2300 ha        1 MOL      0.135127
    131 H57       -12.1580    0.0160   -1.5550 ha        1 MOL      0.091875
    132 H58       -11.1320    3.5040    0.7020 ha        1 MOL      0.091875
    133 H59       -12.8460    1.6860   -0.0170 ha        1 MOL      0.127044
    134 N12        -6.4930   -1.2380   -1.6310 n         1 MOL     -0.145512
    135 C45        -6.5550   -2.6430   -1.2670 c3        1 MOL     -0.077810
    136 C46        -5.6690   -3.0670   -0.0730 c         1 MOL      0.374454
    137 O20        -5.7900   -4.1550    0.4620 o         1 MOL     -0.534871
    138 C47        -6.3740   -3.3770   -2.6060 c3        1 MOL     -0.108980
    139 C48        -5.2540   -2.4930   -3.2530 c3        1 MOL      0.083021
    140 C49        -5.7720   -1.1310   -2.9290 c3        1 MOL     -0.063590
    141 H60        -7.5790   -2.9070   -1.0200 h1        1 MOL      0.094610
    142 H61        -6.0450   -4.4030   -2.4370 hc        1 MOL      0.055073
    143 H62        -7.2510   -3.4570   -3.2570 hc        1 MOL      0.055073
    144 H63        -4.2940   -2.7380   -2.8000 hc        1 MOL      0.006085
    145 H64        -5.1870   -2.6890   -4.3240 hc        1 MOL      0.006085
    146 H65        -4.9310   -0.4530   -2.8100 h1        1 MOL      0.045361
    147 H66        -6.4480   -0.7650   -3.6940 h1        1 MOL      0.045361
    148 N13        -4.8070   -2.2200    0.4670 n         1 MOL      0.003273
    149 C50        -3.9880   -2.4970    1.6890 c3        1 MOL     -0.212027
    150 C51        -4.6770   -1.8820    2.8680 c         1 MOL      0.525716
    151 O21        -4.7490   -2.4450    3.9960 o         1 MOL     -0.572055
    152 C52        -2.6290   -1.8780    1.5520 c3        1 MOL      0.036336
    153 C53        -1.9260   -2.2890    0.3160 c3        1 MOL     -0.431334
    154 C54        -0.5700   -1.5350    0.2670 c         1 MOL      0.951176
    155 O22         0.4470   -2.0320   -0.2590 o         1 MOL     -0.805562
    156 O23        -0.4340   -0.2920    0.4200 o         1 MOL     -0.805562
    157 H67        -4.4830   -1.4310   -0.0650 hn        1 MOL      0.243501
    158 H68        -3.9370   -3.5770    1.8510 h1        1 MOL      0.131427
    159 H69        -2.0030   -2.1630    2.4000 hc        1 MOL      0.053842
    160 H70        -2.6950   -0.7880    1.4890 hc        1 MOL      0.053842
    161 H71        -2.4800   -1.8310   -0.5050 hc        1 MOL      0.126298
    162 H72        -1.6640   -3.3440    0.3710 hc        1 MOL      0.126298
    163 N14        -5.2550   -0.6780    2.6430 n         1 MOL     -0.178661
    164 C55        -6.3060   -0.1350    3.4650 c3        1 MOL     -0.256145
    165 H73        -7.2480   -0.1700    2.9180 h1        1 MOL      0.094599
    166 H74        -6.3950   -0.7230    4.3780 h1        1 MOL      0.094599
    167 H75        -6.0720    0.8980    3.7190 h1        1 MOL      0.094599
    168 H76        -5.1270   -0.3140    1.7110 hn        1 MOL      0.112303
    169 Ca1         1.6990    0.1480   -0.9580 Ca        1 MOL      1.752534
    170 O24         1.5430    2.4630   -2.2450 oh        1 MOL     -0.926740
    171 H77         1.8430    3.3500   -2.0830 ho        1 MOL      0.440478
    172 H78         0.6960    2.5700   -2.6820 ho        1 MOL      0.440478
@<TRIPOS>BOND
     1    1    2 1   
     2    1    4 1   
     3    1    5 1   
     4    1    6 1   
     5    2    3 2   
     6    2    7 1   
     7    7    8 1   
     8    7   15 1   
     9    8    9 1   
    10    8   11 1   
    11    8   16 1   
    12    9   10 2   
    13    9   19 1   
    14   11   12 1   
    15   11   17 1   
    16   11   18 1   
    17   12   13 1   
    18   12   14 1   
    19   19   20 1   
    20   19   24 1   
    21   20   21 1   
    22   20   23 1   
    23   20   25 1   
    24   21   22 2   
    25   21   29 1   
    26   23   26 1   
    27   23   27 1   
    28   23   28 1   
    29   29   30 1   
    30   29   37 1   
    31   30   31 1   
    32   30   33 1   
    33   30   38 1   
    34   31   32 2   
    35   31   41 1   
    36   33   34 1   
    37   33   39 1   
    38   33   40 1   
    39   34   35 1   
    40   34   36 1   
    41   41   42 1   
    42   41   45 1   
    43   42   43 1   
    44   42   46 1   
    45   42   47 1   
    46   43   44 2   
    47   43   48 1   
    48   48   49 1   
    49   48   56 1   
    50   49   50 1   
    51   49   52 1   
    52   49   57 1   
    53   50   51 2   
    54   50   62 1   
    55   52   53 1   
    56   52   58 1   
    57   52   59 1   
    58   53   54 1   
    59   53   55 2   
    60   54   60 1   
    61   54   61 1   
    62   62   63 1   
    63   62   66 1   
    64   63   64 1   
    65   63   67 1   
    66   63   68 1   
    67   64   65 2   
    68   64   69 1   
    69   69   70 1   
    70   69   76 1   
    71   70   71 1   
    72   70   73 1   
    73   70   77 1   
    74   71   72 2   
    75   71   83 1   
    76   73   74 1   
    77   73   75 1   
    78   73   78 1   
    79   74   80 1   
    80   74   81 1   
    81   74   82 1   
    82   75   79 1   
    83   83   84 1   
    84   83   91 1   
    85   84   85 1   
    86   84   87 1   
    87   84   92 1   
    88   85   86 2   
    89   85  102 1   
    90   87   88 1   
    91   87   89 1   
    92   87   93 1   
    93   88   90 1   
    94   88   94 1   
    95   88   95 1   
    96   89   96 1   
    97   89   97 1   
    98   89   98 1   
    99   90   99 1   
   100   90  100 1   
   101   90  101 1   
   102  102  103 1   
   103  102  110 1   
   104  103  104 1   
   105  103  106 1   
   106  103  111 1   
   107  104  105 2   
   108  104  114 1   
   109  106  107 1   
   110  106  112 1   
   111  106  113 1   
   112  107  108 1   
   113  107  109 1   
   114  114  115 1   
   115  114  125 1   
   116  115  116 1   
   117  115  118 1   
   118  115  126 1   
   119  116  117 2   
   120  116  134 1   
   121  118  119 1   
   122  118  127 1   
   123  118  128 1   
   124  119  120 ar  
   125  119  121 ar  
   126  120  122 ar  
   127  120  129 1   
   128  121  123 ar  
   129  121  130 1   
   130  122  124 ar  
   131  122  131 1   
   132  123  124 ar  
   133  123  132 1   
   134  124  133 1   
   135  134  135 1   
   136  134  140 1   
   137  135  136 1   
   138  135  138 1   
   139  135  141 1   
   140  136  137 2   
   141  136  148 1   
   142  138  139 1   
   143  138  142 1   
   144  138  143 1   
   145  139  140 1   
   146  139  144 1   
   147  139  145 1   
   148  140  146 1   
   149  140  147 1   
   150  148  149 1   
   151  148  157 1   
   152  149  150 1   
   153  149  152 1   
   154  149  158 1   
   155  150  151 2   
   156  150  163 1   
   157  152  153 1   
   158  152  159 1   
   159  152  160 1   
   160  153  154 1   
   161  153  161 1   
   162  153  162 1   
   163  154  155 1   
   164  154  156 1   
   165  163  164 1   
   166  163  168 1   
   167  164  165 1   
   168  164  166 1   
   169  164  167 1   
   170  170  171 1   
   171  170  172 1   
@<TRIPOS>SUBSTRUCTURE
     1 MOL         1 TEMP              0 ****  ****    0 ROOT
