@<TRIPOS>MOLECULE
MOL
  176   174     1     0     0
SMALL
resp


@<TRIPOS>ATOM
      1 C1          0.6850    3.5780    6.6050 c3        1 MOL     -0.419663
      2 C2          0.7390    3.1310    5.1280 c         1 MOL      0.766133
      3 O1          1.8310    2.8250    4.6180 o         1 MOL     -0.557601
      4 H1         -0.0450    2.9710    7.1400 hc        1 MOL      0.106444
      5 H2          1.6670    3.4490    7.0600 hc        1 MOL      0.106444
      6 H3          0.3940    4.6270    6.6570 hc        1 MOL      0.106444
      7 N1         -0.4680    3.1280    4.4620 n         1 MOL     -0.643022
      8 C3         -0.6430    2.7460    3.0740 c3        1 MOL      0.007252
      9 C4         -0.8200    3.9370    2.1530 c         1 MOL      0.773683
     10 O2         -1.2920    4.9560    2.5850 o         1 MOL     -0.567619
     11 C5         -1.9260    1.8560    2.9770 c3        1 MOL     -0.096328
     12 C6         -1.9480    1.1290    1.6470 c         1 MOL      1.006976
     13 O3         -3.0310    0.4350    1.4190 o         1 MOL     -0.911648
     14 O4         -1.0800    1.2060    0.8140 o         1 MOL     -0.911648
     15 H4         -1.2870    3.0130    5.0410 hn        1 MOL      0.321388
     16 H5          0.2550    2.1810    2.8140 h1        1 MOL      0.046501
     17 H6         -2.8510    2.4020    3.1570 hc        1 MOL      0.031581
     18 H7         -1.8760    1.1370    3.7840 hc        1 MOL      0.031581
     19 N2         -0.4010    3.8970    0.8130 n         1 MOL     -0.624670
     20 C7         -0.4920    5.0630   -0.1730 c3        1 MOL     -0.104613
     21 C8         -1.8700    5.2250   -0.7470 c         1 MOL      0.502228
     22 O5         -2.1450    6.3670   -1.1680 o         1 MOL     -0.570407
     23 C9          0.4030    4.8200   -1.3880 c3        1 MOL     -0.134335
     24 C10         1.8520    5.2100   -1.0200 c3        1 MOL     -0.044436
     25 C11         2.6650    5.1720   -2.3310 c3        1 MOL     -0.084328
     26 C12         2.3580    6.3120   -3.3490 c3        1 MOL      0.027416
     27 N3          3.0050    5.9820   -4.6160 n4        1 MOL     -0.337735
     28 H8          0.0570    3.0590    0.4710 hn        1 MOL      0.377741
     29 H9         -0.1590    5.9480    0.3670 h1        1 MOL      0.149616
     30 H10         0.0780    5.3900   -2.2510 hc        1 MOL      0.068424
     31 H11         0.3490    3.7650   -1.6610 hc        1 MOL      0.068424
     32 H12         2.2770    4.4110   -0.4150 hc        1 MOL      0.074693
     33 H13         1.9640    6.1650   -0.5140 hc        1 MOL      0.074693
     34 H14         2.5290    4.2440   -2.8990 hc        1 MOL      0.056404
     35 H15         3.6860    5.1330   -1.9620 hc        1 MOL      0.056404
     36 H16         2.5720    7.3020   -2.9450 hx        1 MOL      0.095200
     37 H17         1.2920    6.3720   -3.5860 hx        1 MOL      0.095200
     38 H18         2.5690    5.2330   -5.1220 hn        1 MOL      0.319183
     39 H19         2.9370    6.7250   -5.3060 hn        1 MOL      0.319183
     40 H20         3.9810    5.7180   -4.5620 hn        1 MOL      0.319183
     41 N4         -2.7590    4.1970   -0.7160 n         1 MOL     -0.233900
     42 C13        -4.0680    4.2510   -1.4210 c3        1 MOL     -0.010653
     43 C14        -5.2640    3.7780   -0.4990 c         1 MOL      0.414069
     44 O6         -6.4720    3.9520   -0.7090 o         1 MOL     -0.514497
     45 C15        -3.9910    3.3420   -2.6480 c3        1 MOL     -0.150437
     46 C16        -3.4600    1.9640   -2.5090 c         1 MOL      0.597232
     47 O7         -3.4950    1.4380   -1.3880 o         1 MOL     -0.675236
     48 O8         -2.8970    1.3440   -3.4690 o         1 MOL     -0.675236
     49 H21        -2.5060    3.2930   -0.3360 hn        1 MOL      0.343000
     50 H22        -4.3080    5.2740   -1.7120 h1        1 MOL      0.113114
     51 H23        -3.4220    3.7770   -3.4720 hc        1 MOL      0.050018
     52 H24        -5.0260    3.2450   -2.9670 hc        1 MOL      0.050018
     53 N5         -4.9190    3.2560    0.6880 n         1 MOL     -0.178715
     54 C17        -5.8010    2.5340    1.6500 c3        1 MOL     -0.014708
     55 C18        -6.4810    1.2940    1.0940 c         1 MOL      0.502191
     56 O9         -7.6150    1.0320    1.5480 o         1 MOL     -0.582347
     57 H25        -3.9120    3.1450    0.7730 hn        1 MOL     -0.021934
     58 H26        -6.5240    3.1990    2.1020 h1        1 MOL      0.070321
     59 H27        -5.0940    2.1700    2.3940 h1        1 MOL      0.070321
     60 N6         -5.9470    0.6060    0.0380 n         1 MOL     -0.131208
     61 C19        -6.6070   -0.4440   -0.6500 c3        1 MOL     -0.132835
     62 C20        -6.4970   -1.8160    0.1540 c         1 MOL      0.451520
     63 O10        -6.9230   -2.8850   -0.3570 o         1 MOL     -0.494101
     64 C21        -6.0700   -0.5050   -2.0950 c3        1 MOL     -0.313235
     65 C22        -4.8730   -1.4660   -2.2820 c         1 MOL      0.500163
     66 N7         -4.5790   -1.8100   -3.4810 n         1 MOL     -0.466272
     67 O11        -4.0820   -1.6970   -1.3690 o         1 MOL     -0.521471
     68 H28        -5.0940    0.9800   -0.3520 hn        1 MOL      0.186938
     69 H29        -7.6550   -0.1400   -0.7330 h1        1 MOL      0.144539
     70 H30        -5.8700    0.4580   -2.5600 hc        1 MOL      0.131475
     71 H31        -6.9140   -0.8950   -2.6780 hc        1 MOL      0.131475
     72 H32        -5.3170   -1.6470   -4.1450 hn        1 MOL      0.269396
     73 H33        -3.7660   -2.3740   -3.6970 hn        1 MOL      0.269396
     74 N8         -5.9860   -1.7940    1.4350 n         1 MOL     -0.330973
     75 C23        -5.9650   -2.9710    2.3050 c3        1 MOL     -0.194689
     76 C24        -4.6620   -3.6940    2.4320 c         1 MOL      0.532513
     77 O12        -4.6000   -4.5610    3.2940 o         1 MOL     -0.590422
     78 H34        -5.7610   -0.9420    1.9350 hn        1 MOL      0.301772
     79 H35        -6.8090   -3.5990    2.0350 h1        1 MOL      0.122034
     80 H36        -6.1500   -2.5960    3.3070 h1        1 MOL      0.122034
     81 N9         -3.6770   -3.4560    1.6410 n         1 MOL     -0.199846
     82 C25        -2.3120   -3.9900    1.7520 c3        1 MOL     -0.069898
     83 C26        -1.1470   -2.9820    1.3740 c         1 MOL      0.504107
     84 O13        -1.3310   -2.1440    0.5080 o         1 MOL     -0.661576
     85 C27        -2.1500   -5.2810    0.9300 c3        1 MOL     -0.128287
     86 C28        -2.4800   -5.0660   -0.5880 ca        1 MOL     -0.034306
     87 C29        -1.4440   -4.6790   -1.4760 ca        1 MOL     -0.091507
     88 C30        -3.8030   -5.2780   -1.0190 ca        1 MOL     -0.091507
     89 C31        -1.7090   -4.5330   -2.8620 ca        1 MOL     -0.285267
     90 C32        -4.1430   -5.1260   -2.4020 ca        1 MOL     -0.285267
     91 C33        -3.1000   -4.7170   -3.2800 ca        1 MOL      0.324093
     92 O14        -3.4710   -4.5010   -4.5930 oh        1 MOL     -0.564731
     93 H37        -3.9670   -2.9070    0.8460 hn        1 MOL      0.245040
     94 H38        -2.0630   -4.2390    2.7780 h1        1 MOL      0.086481
     95 H39        -2.8790   -6.0500    1.1850 hc        1 MOL      0.079434
     96 H40        -1.1460   -5.6790    1.0740 hc        1 MOL      0.079434
     97 H41        -0.4350   -4.6420   -1.1160 ha        1 MOL      0.156192
     98 H42        -4.5880   -5.5240   -0.3270 ha        1 MOL      0.156192
     99 H43        -0.9640   -4.2490   -3.5860 ha        1 MOL      0.148844
    100 H44        -5.1600   -5.2610   -2.7340 ha        1 MOL      0.148844
    101 H45        -4.3660   -4.7860   -4.7860 ho        1 MOL      0.418957
    102 N10        -0.0260   -3.2140    1.9960 n         1 MOL     -0.233140
    103 C34         1.2180   -2.4910    1.6220 c3        1 MOL     -0.448507
    104 C35         2.2680   -3.4480    0.9750 c         1 MOL      0.617886
    105 O15         2.4390   -4.5580    1.3990 o         1 MOL     -0.549285
    106 C36         1.7650   -1.7420    2.8970 c3        1 MOL      0.111280
    107 C37         2.3890   -2.6520    3.9300 c3        1 MOL      0.143493
    108 C38         0.5710   -0.9340    3.4150 c3        1 MOL     -0.087747
    109 C39         2.8540   -1.9770    5.1410 c3        1 MOL     -0.291143
    110 H46        -0.0140   -4.0230    2.6140 hn        1 MOL      0.279296
    111 H47         1.0100   -1.7100    0.8870 h1        1 MOL      0.286070
    112 H48         2.6320   -1.1200    2.6480 hc        1 MOL     -0.024236
    113 H49         3.1550   -3.2720    3.4810 hc        1 MOL     -0.003831
    114 H50         1.6030   -3.3010    4.3290 hc        1 MOL     -0.003831
    115 H51         0.8520   -0.1100    4.0570 hc        1 MOL      0.027279
    116 H52        -0.0400   -0.4890    2.6330 hc        1 MOL      0.027279
    117 H53        -0.0450   -1.5850    4.0460 hc        1 MOL      0.027279
    118 H54         1.9470   -1.6730    5.6580 hc        1 MOL      0.068107
    119 H55         3.4040   -2.7370    5.6980 hc        1 MOL      0.068107
    120 H56         3.5110   -1.1640    4.8660 hc        1 MOL      0.068107
    121 N11         2.9650   -2.9470   -0.0200 n         1 MOL     -0.312669
    122 C40         4.2070   -3.4660   -0.6270 c3        1 MOL      0.015696
    123 C41         5.4320   -3.0150    0.0790 c         1 MOL      0.499323
    124 O16         5.3600   -2.1560    0.9590 o         1 MOL     -0.378974
    125 C42         4.1740   -3.1940   -2.1380 c3        1 MOL     -0.148525
    126 O17         4.5000   -1.8310   -2.4500 oh        1 MOL     -0.294809
    127 H57         2.8010   -2.0230   -0.4110 hn        1 MOL      0.167344
    128 H58         4.0980   -4.5430   -0.4910 h1        1 MOL      0.081557
    129 H59         3.1870   -3.3350   -2.5660 h1        1 MOL      0.097431
    130 H60         4.8240   -3.8570   -2.7030 h1        1 MOL      0.097431
    131 H61         4.5860   -1.8790   -3.4090 ho        1 MOL      0.333241
    132 N12         6.5770   -3.3570   -0.4270 n         1 MOL     -0.439745
    133 C43         7.9110   -2.8500   -0.1320 c3        1 MOL      0.193457
    134 C44         8.0440   -1.3490   -0.4270 c         1 MOL      0.441444
    135 O18         8.2550   -0.4680    0.4110 o         1 MOL     -0.492752
    136 C45         9.1050   -3.7680   -0.6050 c3        1 MOL     -0.299851
    137 H62         6.4990   -3.9300   -1.2560 hn        1 MOL      0.244101
    138 H63         7.9400   -2.8980    0.9570 h1        1 MOL      0.066968
    139 H64         8.9560   -4.2830   -1.5580 hc        1 MOL      0.094053
    140 H65         9.9410   -3.1030   -0.8420 hc        1 MOL      0.094053
    141 H66         9.3690   -4.5330    0.1140 hc        1 MOL      0.094053
    142 N13         7.8030   -1.0420   -1.6790 n         1 MOL     -0.407025
    143 C46         7.7140    0.3990   -2.1030 c3        1 MOL      0.148476
    144 C47         6.6640    1.2920   -1.4400 c         1 MOL      0.292038
    145 O19         6.9410    2.4900   -1.1480 o         1 MOL     -0.493169
    146 C48         7.5470    0.4510   -3.6180 c3        1 MOL     -0.288032
    147 H67         7.4830   -1.7950   -2.2780 hn        1 MOL      0.257864
    148 H68         8.6720    0.9190   -1.9560 h1        1 MOL      0.111674
    149 H69         7.5010    1.4530   -4.0460 hc        1 MOL      0.075600
    150 H70         8.3560   -0.0750   -4.1300 hc        1 MOL      0.075600
    151 H71         6.6880   -0.1490   -3.9150 hc        1 MOL      0.075600
    152 N14         5.5830    0.6580   -0.9260 n         1 MOL      0.037277
    153 C49         4.6140    1.3600   -0.1180 c3        1 MOL     -0.081567
    154 C50         5.1400    1.6670    1.3040 c         1 MOL      0.394978
    155 O20         4.9950    2.7920    1.8250 o         1 MOL     -0.531280
    156 C51         3.2060    0.7450   -0.1610 c3        1 MOL      0.010814
    157 C52         2.5990    1.0270   -1.5260 c3        1 MOL     -0.007307
    158 C53         1.1890    0.5410   -1.6840 c         1 MOL      0.852377
    159 O21         0.1710    1.2240   -1.7920 o         1 MOL     -0.817980
    160 O22         0.9170   -0.6660   -1.6520 o         1 MOL     -0.817980
    161 H72         5.4820   -0.3230   -1.0990 hn        1 MOL     -0.103116
    162 H73         4.5290    2.3210   -0.6100 h1        1 MOL      0.075251
    163 H74         2.6500    1.2700    0.6090 hc        1 MOL      0.048817
    164 H75         3.2650   -0.3120    0.0990 hc        1 MOL      0.048817
    165 H76         3.1950    0.5220   -2.2890 hc        1 MOL     -0.061977
    166 H77         2.5750    2.1140   -1.6300 hc        1 MOL     -0.061977
    167 N15         5.7350    0.6620    1.9380 n         1 MOL      0.037292
    168 C54         6.3940    0.7370    3.2650 c3        1 MOL     -0.250962
    169 H78         7.0960    1.5710    3.2750 h1        1 MOL      0.101162
    170 H79         5.6410    0.8880    4.0380 h1        1 MOL      0.101162
    171 H80         6.9310   -0.1910    3.4580 h1        1 MOL      0.101162
    172 H81         5.7000   -0.2280    1.4660 hn        1 MOL      0.065279
    173 Ca1        -1.7670   -0.3430   -1.1910 Ca        1 MOL      1.817368
    174 O23        -1.7860   -1.5290   -3.7250 oh        1 MOL     -0.890663
    175 H82        -1.2140   -2.2860   -3.7980 ho        1 MOL      0.436337
    176 H83        -1.8340   -1.1750   -4.6130 ho        1 MOL      0.436337
@<TRIPOS>BOND
     1    1    2 1   
     2    1    4 1   
     3    1    5 1   
     4    1    6 1   
     5    2    3 2   
     6    2    7 1   
     7    7    8 1   
     8    7   15 1   
     9    8    9 1   
    10    8   11 1   
    11    8   16 1   
    12    9   10 2   
    13    9   19 1   
    14   11   12 1   
    15   11   17 1   
    16   11   18 1   
    17   12   13 1   
    18   12   14 1   
    19   19   20 1   
    20   19   28 1   
    21   20   21 1   
    22   20   23 1   
    23   20   29 1   
    24   21   22 2   
    25   21   41 1   
    26   23   24 1   
    27   23   30 1   
    28   23   31 1   
    29   24   25 1   
    30   24   32 1   
    31   24   33 1   
    32   25   26 1   
    33   25   34 1   
    34   25   35 1   
    35   26   27 1   
    36   26   36 1   
    37   26   37 1   
    38   27   38 1   
    39   27   39 1   
    40   27   40 1   
    41   41   42 1   
    42   41   49 1   
    43   42   43 1   
    44   42   45 1   
    45   42   50 1   
    46   43   44 2   
    47   43   53 1   
    48   45   46 1   
    49   45   51 1   
    50   45   52 1   
    51   46   47 1   
    52   46   48 1   
    53   53   54 1   
    54   53   57 1   
    55   54   55 1   
    56   54   58 1   
    57   54   59 1   
    58   55   56 2   
    59   55   60 1   
    60   60   61 1   
    61   60   68 1   
    62   61   62 1   
    63   61   64 1   
    64   61   69 1   
    65   62   63 2   
    66   62   74 1   
    67   64   65 1   
    68   64   70 1   
    69   64   71 1   
    70   65   66 1   
    71   65   67 2   
    72   66   72 1   
    73   66   73 1   
    74   74   75 1   
    75   74   78 1   
    76   75   76 1   
    77   75   79 1   
    78   75   80 1   
    79   76   77 2   
    80   76   81 1   
    81   81   82 1   
    82   81   93 1   
    83   82   83 1   
    84   82   85 1   
    85   82   94 1   
    86   83   84 2   
    87   83  102 1   
    88   85   86 1   
    89   85   95 1   
    90   85   96 1   
    91   86   87 ar  
    92   86   88 ar  
    93   87   89 ar  
    94   87   97 1   
    95   88   90 ar  
    96   88   98 1   
    97   89   91 ar  
    98   89   99 1   
    99   90   91 ar  
   100   90  100 1   
   101   91   92 1   
   102   92  101 1   
   103  102  103 1   
   104  102  110 1   
   105  103  104 1   
   106  103  106 1   
   107  103  111 1   
   108  104  105 2   
   109  104  121 1   
   110  106  107 1   
   111  106  108 1   
   112  106  112 1   
   113  107  109 1   
   114  107  113 1   
   115  107  114 1   
   116  108  115 1   
   117  108  116 1   
   118  108  117 1   
   119  109  118 1   
   120  109  119 1   
   121  109  120 1   
   122  121  122 1   
   123  121  127 1   
   124  122  123 1   
   125  122  125 1   
   126  122  128 1   
   127  123  124 2   
   128  123  132 1   
   129  125  126 1   
   130  125  129 1   
   131  125  130 1   
   132  126  131 1   
   133  132  133 1   
   134  132  137 1   
   135  133  134 1   
   136  133  136 1   
   137  133  138 1   
   138  134  135 2   
   139  134  142 1   
   140  136  139 1   
   141  136  140 1   
   142  136  141 1   
   143  142  143 1   
   144  142  147 1   
   145  143  144 1   
   146  143  146 1   
   147  143  148 1   
   148  144  145 2   
   149  144  152 1   
   150  146  149 1   
   151  146  150 1   
   152  146  151 1   
   153  152  153 1   
   154  152  161 1   
   155  153  154 1   
   156  153  156 1   
   157  153  162 1   
   158  154  155 2   
   159  154  167 1   
   160  156  157 1   
   161  156  163 1   
   162  156  164 1   
   163  157  158 1   
   164  157  165 1   
   165  157  166 1   
   166  158  159 1   
   167  158  160 1   
   168  167  168 1   
   169  167  172 1   
   170  168  169 1   
   171  168  170 1   
   172  168  171 1   
   173  174  175 1   
   174  174  176 1   
@<TRIPOS>SUBSTRUCTURE
     1 MOL         1 TEMP              0 ****  ****    0 ROOT
