@<TRIPOS>MOLECULE
MOL
  189   185     1     0     0
SMALL
resp


@<TRIPOS>ATOM
      1 C1         -0.4770    3.4760    6.1640 c3        1 MOL     -0.406174
      2 C2         -0.9620    3.1130    4.7640 c         1 MOL      0.728127
      3 O1         -1.1320    1.9380    4.3750 o         1 MOL     -0.610627
      4 H1         -0.5660    4.5530    6.3110 hc        1 MOL      0.105907
      5 H2         -1.0850    2.9570    6.9060 hc        1 MOL      0.105907
      6 H3          0.5660    3.1800    6.2760 hc        1 MOL      0.105907
      7 N1         -1.1370    4.1240    3.9040 n         1 MOL     -0.548357
      8 C3         -1.8780    3.9330    2.6560 c3        1 MOL      0.130788
      9 C4         -1.6230    5.0300    1.6420 c         1 MOL      0.576876
     10 O2         -1.5640    6.1700    1.9680 o         1 MOL     -0.595758
     11 C5         -3.3770    3.5820    3.0420 c3        1 MOL     -0.289547
     12 C6         -4.0990    2.8350    1.9160 c         1 MOL      0.700442
     13 O3         -5.3630    2.6720    2.1590 o         1 MOL     -0.694113
     14 O4         -3.6600    2.4550    0.7890 o         1 MOL     -0.694113
     15 H4         -0.9220    5.0620    4.2120 hn        1 MOL      0.299713
     16 H5         -1.4570    3.0280    2.2160 h1        1 MOL      0.041832
     17 H6         -4.0000    4.4460    3.2710 hc        1 MOL      0.084985
     18 H7         -3.4000    2.9350    3.9140 hc        1 MOL      0.084985
     19 N2         -1.5300    4.6910    0.3490 n         1 MOL     -0.439478
     20 C7         -1.4400    5.6940   -0.7790 c3        1 MOL     -0.088770
     21 C8         -2.2260    5.1980   -2.0320 c         1 MOL      0.586017
     22 O5         -2.0590    5.6490   -3.1600 o         1 MOL     -0.517338
     23 C9          0.0740    6.1390   -0.9320 c3        1 MOL      0.289109
     24 C10         0.3610    7.3180   -1.9290 c3        1 MOL     -0.121678
     25 C11         1.0820    5.0130   -1.2190 c3        1 MOL     -0.372304
     26 C12        -0.6650    8.4230   -1.8560 c3        1 MOL     -0.074695
     27 H8         -1.7460    3.7180    0.1590 hn        1 MOL      0.510176
     28 H9         -2.0350    6.5410   -0.4610 h1        1 MOL      0.092307
     29 H10         0.4590    6.5020    0.0180 hc        1 MOL     -0.017998
     30 H11         0.2780    6.8540   -2.9080 hc        1 MOL      0.034227
     31 H12         1.3950    7.6330   -1.7740 hc        1 MOL      0.034227
     32 H13         2.0840    5.4360   -1.1310 hc        1 MOL      0.091741
     33 H14         0.9000    4.1580   -0.5600 hc        1 MOL      0.091741
     34 H15         0.8660    4.7140   -2.2400 hc        1 MOL      0.091741
     35 H16        -0.8700    8.6260   -0.8110 hc        1 MOL      0.002637
     36 H17        -0.3350    9.3840   -2.2490 hc        1 MOL      0.002637
     37 H18        -1.6560    8.1850   -2.2380 hc        1 MOL      0.002637
     38 N3         -3.1290    4.1450   -1.9130 n         1 MOL     -0.431002
     39 C13        -4.0570    3.7490   -2.9410 c3        1 MOL      0.186766
     40 C14        -5.4760    3.3360   -2.5430 c         1 MOL      0.444104
     41 O6         -6.4290    3.7010   -3.2380 o         1 MOL     -0.581036
     42 C15        -3.3050    2.7140   -3.8640 c3        1 MOL     -0.255785
     43 C16        -2.8430    1.4370   -3.0960 c         1 MOL      0.714720
     44 O7         -3.3980    1.1370   -1.9890 o         1 MOL     -0.658625
     45 O8         -1.9670    0.7030   -3.5840 o         1 MOL     -0.658625
     46 H19        -3.1680    3.7320   -1.0010 hn        1 MOL      0.053711
     47 H20        -4.2660    4.6270   -3.5450 h1        1 MOL      0.024637
     48 H21        -2.4710    3.2630   -4.3040 hc        1 MOL      0.062994
     49 H22        -3.9850    2.4400   -4.6660 hc        1 MOL      0.062994
     50 N4         -5.6350    2.6670   -1.4070 n         1 MOL     -0.258168
     51 C17        -6.9590    2.1540   -0.9450 c3        1 MOL     -0.201456
     52 C18        -7.2840    0.7050   -1.2240 c         1 MOL      0.510072
     53 O9         -8.3440    0.1550   -0.8350 o         1 MOL     -0.631793
     54 H23        -4.8170    2.3760   -0.8870 hn        1 MOL      0.283779
     55 H24        -7.7830    2.7400   -1.3660 h1        1 MOL      0.114240
     56 H25        -7.0450    2.3640    0.1230 h1        1 MOL      0.114240
     57 N5         -6.3570   -0.0320   -1.8320 n         1 MOL     -0.250211
     58 C19        -6.5690   -1.3630   -2.3560 c3        1 MOL     -0.054374
     59 C20        -6.7230   -2.5170   -1.3340 c         1 MOL      0.428472
     60 O10        -6.9300   -3.6370   -1.7860 o         1 MOL     -0.558705
     61 C21        -5.3230   -1.6720   -3.1250 c3        1 MOL     -0.222628
     62 C22        -3.9990   -1.9520   -2.3940 c         1 MOL      0.755107
     63 O11        -3.8420   -1.6290   -1.1960 o         1 MOL     -0.694989
     64 O12        -3.0860   -2.4990   -3.0190 o         1 MOL     -0.694989
     65 H26        -5.4710    0.4070   -2.0690 hn        1 MOL      0.205772
     66 H27        -7.4730   -1.4020   -2.9590 h1        1 MOL      0.106127
     67 H28        -4.9820   -0.9060   -3.8120 hc        1 MOL      0.057211
     68 H29        -5.5960   -2.4510   -3.8390 hc        1 MOL      0.057211
     69 N6         -6.6340   -2.3180   -0.0320 n         1 MOL     -0.115505
     70 C23        -6.9260   -3.3690    0.9340 c3        1 MOL     -0.235493
     71 C24        -5.7470   -4.3020    1.1490 c         1 MOL      0.573336
     72 O13        -6.0040   -5.3750    1.6910 o         1 MOL     -0.595635
     73 H30        -6.4680   -1.3590    0.2420 hn        1 MOL      0.221382
     74 H31        -7.7770   -3.9440    0.5690 h1        1 MOL      0.098011
     75 H32        -7.2020   -2.9470    1.9000 h1        1 MOL      0.098011
     76 N7         -4.5380   -3.9310    0.7100 n         1 MOL     -0.222161
     77 C25        -3.3000   -4.6220    1.0850 c3        1 MOL     -0.181390
     78 C26        -2.2480   -3.5790    1.5350 c         1 MOL      0.389528
     79 O14        -2.3490   -2.4100    1.0790 o         1 MOL     -0.466066
     80 C27        -2.6730   -5.4810   -0.0310 c3        1 MOL      0.117583
     81 C28        -3.3900   -6.8190   -0.3330 c3        1 MOL     -0.400158
     82 C29        -2.8330   -7.5020   -1.5510 c         1 MOL      0.694787
     83 N8         -3.3030   -7.1940   -2.7510 n         1 MOL     -0.735949
     84 O15        -2.0310   -8.3270   -1.4920 o         1 MOL     -0.578848
     85 H33        -4.4080   -2.9710    0.4220 hn        1 MOL      0.208370
     86 H34        -3.4880   -5.3450    1.8790 h1        1 MOL      0.076454
     87 H35        -1.6170   -5.6130    0.1920 hc        1 MOL      0.045370
     88 H36        -2.7540   -4.9010   -0.9510 hc        1 MOL      0.045370
     89 H37        -4.4780   -6.6670   -0.3880 hc        1 MOL      0.113095
     90 H38        -3.2550   -7.5170    0.4920 hc        1 MOL      0.113095
     91 H39        -4.1650   -6.6770   -2.7240 hn        1 MOL      0.336172
     92 H40        -2.9820   -7.7540   -3.5230 hn        1 MOL      0.336172
     93 N9         -1.2370   -3.9920    2.2890 n         1 MOL     -0.312712
     94 C30        -0.0260   -3.1570    2.4900 c3        1 MOL     -0.079317
     95 C31         0.9890   -3.3840    1.3160 c         1 MOL      0.539868
     96 O16         1.4990   -4.5110    1.2480 o         1 MOL     -0.603535
     97 C32         0.6880   -3.4240    3.8670 c3        1 MOL      0.329735
     98 C33         1.8210   -2.4400    4.3050 c3        1 MOL     -0.297218
     99 C34        -0.3770   -3.3190    4.9900 c3        1 MOL     -0.297218
    100 H41        -1.3120   -4.9400    2.6290 hn        1 MOL      0.271611
    101 H42        -0.3130   -2.1090    2.5600 h1        1 MOL      0.131450
    102 H43         1.0310   -4.4580    3.9160 hc        1 MOL     -0.041645
    103 H44         2.4340   -2.8360    5.1160 hc        1 MOL      0.056747
    104 H45         2.5490   -2.3310    3.5010 hc        1 MOL      0.056747
    105 H46         1.3150   -1.5050    4.5580 hc        1 MOL      0.056747
    106 H47        -1.1620   -4.0270    4.7500 hc        1 MOL      0.056747
    107 H48         0.0560   -3.5090    5.9720 hc        1 MOL      0.056747
    108 H49        -0.8530   -2.3460    5.0010 hc        1 MOL      0.056747
    109 N10         1.3980   -2.3490    0.6080 n         1 MOL     -0.395918
    110 C35         2.6010   -2.4260   -0.2790 c3        1 MOL      0.205910
    111 C36         3.9480   -2.1960    0.4880 c         1 MOL      0.156897
    112 O17         3.9610   -1.5650    1.5370 o         1 MOL     -0.319573
    113 C37         2.3270   -1.5020   -1.4790 c3        1 MOL     -0.260921
    114 C38         3.5210   -1.1360   -2.3520 c         1 MOL      0.782538
    115 N11         4.0610   -2.1140   -2.9750 n         1 MOL     -0.823573
    116 O18         3.9620   -0.0130   -2.4770 o         1 MOL     -0.566974
    117 H50         0.9170   -1.4820    0.7720 hn        1 MOL      0.284698
    118 H51         2.6860   -3.4600   -0.6080 h1        1 MOL      0.051992
    119 H52         2.0170   -0.5220   -1.1190 hc        1 MOL      0.090483
    120 H53         1.6020   -1.9300   -2.1600 hc        1 MOL      0.090483
    121 H54         3.7060   -3.0580   -2.9260 hn        1 MOL      0.358381
    122 H55         4.7230   -1.8080   -3.6670 hn        1 MOL      0.358381
    123 N12         5.0780   -2.7010   -0.0500 n         1 MOL     -0.017450
    124 C39         6.3600   -2.5960    0.6310 c3        1 MOL     -0.072374
    125 C40         6.9370   -1.1680    0.6490 c         1 MOL      0.221379
    126 O19         7.9920   -0.8640    1.3130 o         1 MOL     -0.537920
    127 C41         7.3470   -3.5370   -0.1190 c3        1 MOL     -0.111424
    128 C42         7.6010   -3.0580   -1.4820 ca        1 MOL      0.095131
    129 C43         6.7590   -3.4760   -2.4960 ca        1 MOL     -0.260445
    130 C44         8.5660   -2.0560   -1.8310 ca        1 MOL     -0.260445
    131 C45         6.8280   -2.9610   -3.8050 ca        1 MOL     -0.215588
    132 C46         8.6250   -1.5120   -3.0990 ca        1 MOL     -0.215588
    133 C47         7.7930   -1.9950   -4.0700 ca        1 MOL      0.363048
    134 O20         7.9720   -1.4520   -5.2990 oh        1 MOL     -0.572282
    135 H56         4.9750   -3.2370   -0.9040 hn        1 MOL      0.046782
    136 H57         6.2660   -3.0520    1.6190 h1        1 MOL      0.116509
    137 H58         7.0100   -4.5710   -0.0920 hc        1 MOL      0.058032
    138 H59         8.3170   -3.5390    0.3830 hc        1 MOL      0.058032
    139 H60         5.9470   -4.1620   -2.2670 ha        1 MOL      0.179309
    140 H61         9.2380   -1.7510   -1.0450 ha        1 MOL      0.179309
    141 H62         6.2660   -3.3720   -4.6350 ha        1 MOL      0.137878
    142 H63         9.2110   -0.6320   -3.3210 ha        1 MOL      0.137878
    143 H64         8.6250   -0.7530   -5.3050 ho        1 MOL      0.427549
    144 N13         6.2650   -0.2280    0.0550 n         1 MOL      0.248018
    145 C48         6.4770    1.2160    0.2990 c3        1 MOL     -0.322115
    146 C49         5.5560    1.7860    1.4730 c         1 MOL      0.468021
    147 O21         5.9140    2.8060    2.0460 o         1 MOL     -0.516277
    148 C50         6.3700    2.0450   -0.9260 c3        1 MOL      0.194039
    149 C51         7.3500    1.7610   -2.0400 c3        1 MOL     -0.329196
    150 C52         7.4220    2.9920   -2.9810 c         1 MOL      0.721241
    151 O22         6.5290    3.2930   -3.7760 o         1 MOL     -0.742192
    152 O23         8.4700    3.6910   -2.8840 o         1 MOL     -0.742192
    153 H65         5.5960   -0.4320   -0.6700 hn        1 MOL      0.100046
    154 H66         7.4850    1.3950    0.6560 h1        1 MOL      0.133671
    155 H67         6.5180    3.0800   -0.6250 hc        1 MOL      0.015885
    156 H68         5.3510    1.9610   -1.2970 hc        1 MOL      0.015885
    157 H69         7.0430    0.8960   -2.6230 hc        1 MOL      0.050186
    158 H70         8.3350    1.5760   -1.6020 hc        1 MOL      0.050186
    159 N14         4.4510    1.1480    1.7690 n         1 MOL     -0.282293
    160 C53         3.5850    1.6040    2.8220 c3        1 MOL     -0.040077
    161 C54         4.1230    1.1130    4.2060 c         1 MOL      0.430778
    162 O24         4.2530    1.8390    5.2000 o         1 MOL     -0.552453
    163 C55         2.1200    1.1850    2.4270 c3        1 MOL      0.005582
    164 C56         1.4330    1.9530    1.3030 c3        1 MOL      0.110856
    165 C57         0.2430    1.2670    0.6580 c         1 MOL      0.810883
    166 O25        -0.6460    1.9650    0.1010 o         1 MOL     -0.831268
    167 O26        -0.1620    0.0740    0.9090 o         1 MOL     -0.831268
    168 H71         4.0620    0.3690    1.2520 hn        1 MOL      0.159086
    169 H72         3.5930    2.6880    2.8830 h1        1 MOL      0.074251
    170 H73         1.4830    1.4540    3.2680 hc        1 MOL      0.011223
    171 H74         2.0630    0.1080    2.2720 hc        1 MOL      0.011223
    172 H75         2.0960    2.1240    0.4540 hc        1 MOL     -0.037079
    173 H76         1.1160    2.9340    1.6510 hc        1 MOL     -0.037079
    174 N15         4.3830   -0.1930    4.3320 n         1 MOL     -0.062038
    175 C58         4.7690   -0.9180    5.5590 c3        1 MOL     -0.078295
    176 H77         4.2570   -1.8800    5.5890 h1        1 MOL      0.049429
    177 H78         5.8470   -1.0800    5.5620 h1        1 MOL      0.049429
    178 H79         4.4880   -0.3310    6.4330 h1        1 MOL      0.049429
    179 H80         4.3080   -0.7280    3.4790 hn        1 MOL      0.051502
    180 Ca1        -2.5590    0.0460    0.1860 Ca        1 MOL      1.715005
    181 O27        -2.5040    0.3080    2.8440 oh        1 MOL     -0.892963
    182 O28        -1.1860   -1.1490   -1.8010 oh        1 MOL     -0.892963
    183 H81        -1.9900    1.0220    3.2070 ho        1 MOL      0.419369
    184 H82        -1.8970   -1.7760   -1.9340 ho        1 MOL      0.419369
    185 H83        -2.8720   -0.1320    3.6130 ho        1 MOL      0.419369
    186 H84        -1.2190   -0.5780   -2.5700 ho        1 MOL      0.419369
    187 O29        -5.1340    0.0550    1.2420 oh        1 MOL     -0.892963
    188 H85        -5.0210    1.0040    1.2500 ho        1 MOL      0.419369
    189 H86        -5.7950   -0.1080    1.9190 ho        1 MOL      0.419369
@<TRIPOS>BOND
     1    1    2 1   
     2    1    4 1   
     3    1    5 1   
     4    1    6 1   
     5    2    3 2   
     6    2    7 1   
     7    7    8 1   
     8    7   15 1   
     9    8    9 1   
    10    8   11 1   
    11    8   16 1   
    12    9   10 2   
    13    9   19 1   
    14   11   12 1   
    15   11   17 1   
    16   11   18 1   
    17   12   13 1   
    18   12   14 1   
    19   19   20 1   
    20   19   27 1   
    21   20   21 1   
    22   20   23 1   
    23   20   28 1   
    24   21   22 2   
    25   21   38 1   
    26   23   24 1   
    27   23   25 1   
    28   23   29 1   
    29   24   26 1   
    30   24   30 1   
    31   24   31 1   
    32   25   32 1   
    33   25   33 1   
    34   25   34 1   
    35   26   35 1   
    36   26   36 1   
    37   26   37 1   
    38   38   39 1   
    39   38   46 1   
    40   39   40 1   
    41   39   42 1   
    42   39   47 1   
    43   40   41 2   
    44   40   50 1   
    45   42   43 1   
    46   42   48 1   
    47   42   49 1   
    48   43   44 1   
    49   43   45 1   
    50   50   51 1   
    51   50   54 1   
    52   51   52 1   
    53   51   55 1   
    54   51   56 1   
    55   52   53 2   
    56   52   57 1   
    57   57   58 1   
    58   57   65 1   
    59   58   59 1   
    60   58   61 1   
    61   58   66 1   
    62   59   60 2   
    63   59   69 1   
    64   61   62 1   
    65   61   67 1   
    66   61   68 1   
    67   62   63 1   
    68   62   64 1   
    69   69   70 1   
    70   69   73 1   
    71   70   71 1   
    72   70   74 1   
    73   70   75 1   
    74   71   72 2   
    75   71   76 1   
    76   76   77 1   
    77   76   85 1   
    78   77   78 1   
    79   77   80 1   
    80   77   86 1   
    81   78   79 2   
    82   78   93 1   
    83   80   81 1   
    84   80   87 1   
    85   80   88 1   
    86   81   82 1   
    87   81   89 1   
    88   81   90 1   
    89   82   83 1   
    90   82   84 2   
    91   83   91 1   
    92   83   92 1   
    93   93   94 1   
    94   93  100 1   
    95   94   95 1   
    96   94   97 1   
    97   94  101 1   
    98   95   96 2   
    99   95  109 1   
   100   97   98 1   
   101   97   99 1   
   102   97  102 1   
   103   98  103 1   
   104   98  104 1   
   105   98  105 1   
   106   99  106 1   
   107   99  107 1   
   108   99  108 1   
   109  109  110 1   
   110  109  117 1   
   111  110  111 1   
   112  110  113 1   
   113  110  118 1   
   114  111  112 2   
   115  111  123 1   
   116  113  114 1   
   117  113  119 1   
   118  113  120 1   
   119  114  115 1   
   120  114  116 2   
   121  115  121 1   
   122  115  122 1   
   123  123  124 1   
   124  123  135 1   
   125  124  125 1   
   126  124  127 1   
   127  124  136 1   
   128  125  126 2   
   129  125  144 1   
   130  127  128 1   
   131  127  137 1   
   132  127  138 1   
   133  128  129 ar  
   134  128  130 ar  
   135  129  131 ar  
   136  129  139 1   
   137  130  132 ar  
   138  130  140 1   
   139  131  133 ar  
   140  131  141 1   
   141  132  133 ar  
   142  132  142 1   
   143  133  134 1   
   144  134  143 1   
   145  144  145 1   
   146  144  153 1   
   147  145  146 1   
   148  145  148 1   
   149  145  154 1   
   150  146  147 2   
   151  146  159 1   
   152  148  149 1   
   153  148  155 1   
   154  148  156 1   
   155  149  150 1   
   156  149  157 1   
   157  149  158 1   
   158  150  151 1   
   159  150  152 1   
   160  159  160 1   
   161  159  168 1   
   162  160  161 1   
   163  160  163 1   
   164  160  169 1   
   165  161  162 2   
   166  161  174 1   
   167  163  164 1   
   168  163  170 1   
   169  163  171 1   
   170  164  165 1   
   171  164  172 1   
   172  164  173 1   
   173  165  166 1   
   174  165  167 1   
   175  174  175 1   
   176  174  179 1   
   177  175  176 1   
   178  175  177 1   
   179  175  178 1   
   180  181  183 1   
   181  181  185 1   
   182  182  184 1   
   183  182  186 1   
   184  187  188 1   
   185  187  189 1   
@<TRIPOS>SUBSTRUCTURE
     1 MOL         1 TEMP              0 ****  ****    0 ROOT
