@<TRIPOS>MOLECULE
MOL
  179   176     1     0     0
SMALL
resp


@<TRIPOS>ATOM
      1 C1          2.6070    3.2880    4.0500 c3        1 MOL     -0.449634
      2 C2          1.7120    3.3690    2.8320 c         1 MOL      0.523930
      3 O1          2.1370    3.2330    1.6860 o         1 MOL     -0.503568
      4 H1          3.5660    2.8550    3.7680 hc        1 MOL      0.134046
      5 H2          2.7660    4.2890    4.4520 hc        1 MOL      0.134046
      6 H3          2.1340    2.6630    4.8070 hc        1 MOL      0.134046
      7 N1          0.3910    3.4410    3.0530 n         1 MOL     -0.566352
      8 C3         -0.6920    3.1230    2.0380 c3        1 MOL      0.142959
      9 C4         -1.2440    4.3490    1.3840 c         1 MOL      0.557922
     10 O2         -2.4380    4.7830    1.4310 o         1 MOL     -0.485695
     11 C5         -1.8110    2.3230    2.6780 c3        1 MOL     -0.265489
     12 C6         -2.6180    1.4640    1.6790 c         1 MOL      0.631690
     13 O3         -3.5710    0.7440    2.1320 o         1 MOL     -0.634218
     14 O4         -2.2880    1.4860    0.4660 o         1 MOL     -0.634218
     15 H4          0.0420    3.5320    3.9920 hn        1 MOL      0.328879
     16 H5         -0.2840    2.3680    1.3500 h1        1 MOL     -0.066056
     17 H6         -2.3800    2.9830    3.3390 hc        1 MOL      0.089644
     18 H7         -1.3360    1.5260    3.2480 hc        1 MOL      0.089644
     19 N2         -0.3590    5.1110    0.6960 n         1 MOL     -0.529749
     20 C7         -0.6580    6.3970    0.0870 c3        1 MOL      0.061511
     21 C8         -1.8000    6.3730   -0.9520 c         1 MOL      0.337739
     22 O5         -2.4380    7.4300   -1.2400 o         1 MOL     -0.529266
     23 C9          0.5900    7.0910   -0.4640 c3        1 MOL     -0.024167
     24 C10         1.6310    7.3690    0.6480 c3        1 MOL     -0.047811
     25 C11         2.9770    7.7130   -0.0240 c3        1 MOL      0.004005
     26 C12         4.2190    7.9790    0.7600 c3        1 MOL     -0.053392
     27 N3          4.5610    6.9360    1.7040 n4        1 MOL     -0.269682
     28 H8          0.6150    4.8490    0.6690 hn        1 MOL      0.363027
     29 H9         -1.0570    7.0530    0.8620 h1        1 MOL      0.088951
     30 H10         0.3620    8.0730   -0.8980 hc        1 MOL      0.037769
     31 H11         0.9140    6.4520   -1.2760 hc        1 MOL      0.037769
     32 H12         1.6840    6.3830    1.1240 hc        1 MOL      0.015246
     33 H13         1.2040    8.1740    1.2350 hc        1 MOL      0.015246
     34 H14         2.8800    8.5910   -0.6630 hc        1 MOL      0.051766
     35 H15         3.1680    6.8470   -0.6590 hc        1 MOL      0.051766
     36 H16         4.1430    8.9190    1.3100 hx        1 MOL      0.103639
     37 H17         4.9840    8.1080   -0.0080 hx        1 MOL      0.103639
     38 H18         3.8120    6.7480    2.3540 hn        1 MOL      0.309796
     39 H19         4.7720    6.0480    1.2750 hn        1 MOL      0.309796
     40 H20         5.2680    7.2920    2.3320 hn        1 MOL      0.309796
     41 N4         -2.1610    5.1990   -1.4620 n         1 MOL     -0.102829
     42 C13        -3.2240    4.9880   -2.4390 c3        1 MOL     -0.033530
     43 C14        -4.4270    4.3970   -1.6750 c         1 MOL      0.506742
     44 O6         -5.5180    4.7950   -2.0410 o         1 MOL     -0.540042
     45 C15        -2.8340    3.9730   -3.6090 c3        1 MOL     -0.338780
     46 C16        -2.4600    2.5540   -3.2700 c         1 MOL      0.880212
     47 O7         -1.2500    2.2000   -3.2210 o         1 MOL     -0.818661
     48 O8         -3.3120    1.7850   -2.8490 o         1 MOL     -0.818661
     49 H21        -1.6830    4.3400   -1.2500 hn        1 MOL      0.157603
     50 H22        -3.5930    5.9210   -2.8460 h1        1 MOL      0.124635
     51 H23        -2.1020    4.3620   -4.3150 hc        1 MOL      0.087835
     52 H24        -3.7070    3.9090   -4.2540 hc        1 MOL      0.087835
     53 N5         -4.2560    3.6870   -0.5240 n         1 MOL     -0.001697
     54 C17        -5.2950    3.6900    0.5340 c3        1 MOL     -0.118738
     55 C18        -6.3200    2.5460    0.4360 c         1 MOL      0.597687
     56 O9         -7.5210    2.7980    0.4510 o         1 MOL     -0.579190
     57 H25        -3.3780    3.3310   -0.1780 hn        1 MOL      0.034588
     58 H26        -5.7930    4.6560    0.4730 h1        1 MOL      0.068456
     59 H27        -4.8060    3.6290    1.5040 h1        1 MOL      0.068456
     60 N6         -5.9110    1.2970    0.2460 n         1 MOL     -0.324682
     61 C19        -6.7250    0.1700   -0.2020 c3        1 MOL     -0.010510
     62 C20        -6.6840   -1.0960    0.6630 c         1 MOL      0.271575
     63 O10        -7.2170   -2.0950    0.1890 o         1 MOL     -0.448440
     64 C21        -6.3570   -0.1180   -1.6730 c3        1 MOL     -0.181892
     65 C22        -5.1980   -1.0510   -1.8220 c         1 MOL      0.733398
     66 N7         -5.1750   -1.7250   -2.9210 n         1 MOL     -0.770572
     67 O11        -4.2400   -0.9930   -1.1050 o         1 MOL     -0.631191
     68 H28        -4.9010    1.2250    0.1990 hn        1 MOL      0.108386
     69 H29        -7.7520    0.5250   -0.1110 h1        1 MOL      0.129084
     70 H30        -6.0840    0.8390   -2.1150 hc        1 MOL      0.084372
     71 H31        -7.1330   -0.5710   -2.2810 hc        1 MOL      0.084372
     72 H32        -5.8870   -1.6710   -3.6330 hn        1 MOL      0.357851
     73 H33        -4.2960   -2.2180   -3.0020 hn        1 MOL      0.357851
     74 N8         -6.0020   -0.9820    1.8340 n         1 MOL     -0.089063
     75 C23        -5.9120   -2.0630    2.7930 c3        1 MOL     -0.436217
     76 C24        -4.7570   -3.0110    2.6150 c         1 MOL      0.715168
     77 O12        -4.5200   -3.8550    3.4450 o         1 MOL     -0.607341
     78 H34        -5.6780   -0.0670    2.1030 hn        1 MOL      0.240992
     79 H35        -6.8080   -2.6740    2.6860 h1        1 MOL      0.169221
     80 H36        -5.9100   -1.5390    3.7510 h1        1 MOL      0.169221
     81 N9         -3.9520   -2.8470    1.5510 n         1 MOL     -0.356382
     82 C25        -2.7840   -3.6630    1.2090 c3        1 MOL      0.226814
     83 C26        -1.4670   -2.8490    1.0140 c         1 MOL      0.376837
     84 O13        -1.5740   -1.8250    0.3360 o         1 MOL     -0.561381
     85 C27        -2.9900   -4.5070   -0.0140 c3        1 MOL      0.104710
     86 C28        -4.1690   -5.4750    0.0960 ca        1 MOL     -0.189303
     87 C29        -5.2080   -5.1380   -0.7720 ca        1 MOL      0.011755
     88 C30        -4.2380   -6.6020    0.9340 ca        1 MOL      0.011755
     89 C31        -6.3000   -5.9740   -0.9280 ca        1 MOL     -0.305046
     90 C32        -5.2910   -7.5180    0.7270 ca        1 MOL     -0.305046
     91 C33        -6.3550   -7.1720   -0.2150 ca        1 MOL      0.312859
     92 O14        -7.5110   -7.9860   -0.2420 oh        1 MOL     -0.480396
     93 H37        -4.1040   -2.0470    0.9520 hn        1 MOL      0.224231
     94 H38        -2.5350   -4.2600    2.0880 h1        1 MOL      0.017928
     95 H39        -2.1080   -5.1410   -0.0610 hc        1 MOL     -0.010517
     96 H40        -3.0210   -3.9700   -0.9560 hc        1 MOL     -0.010517
     97 H41        -5.1300   -4.2740   -1.4090 ha        1 MOL      0.082176
     98 H42        -3.3540   -6.8760    1.4900 ha        1 MOL      0.082176
     99 H43        -7.1060   -5.7320   -1.6020 ha        1 MOL      0.155717
    100 H44        -5.3760   -8.4860    1.1750 ha        1 MOL      0.155717
    101 H45        -7.3250   -8.8120    0.2070 ho        1 MOL      0.350948
    102 N10        -0.3060   -3.2650    1.4630 n         1 MOL     -0.469396
    103 C34         0.9860   -2.6580    1.1600 c3        1 MOL      0.345878
    104 C35         1.9450   -3.7690    0.6800 c         1 MOL      0.342255
    105 O15         1.8080   -4.8980    1.0810 o         1 MOL     -0.516109
    106 C36         1.5020   -1.6390    2.1460 c3        1 MOL     -0.096301
    107 C37         1.7920   -2.1520    3.5770 c3        1 MOL     -0.068134
    108 C38         0.6280   -0.4200    2.3590 c3        1 MOL     -0.845445
    109 C39         3.1220   -2.9810    3.4910 c3        1 MOL     -0.042222
    110 H46        -0.3760   -3.9170    2.2350 hn        1 MOL      0.293875
    111 H47         0.8160   -2.0200    0.2910 h1        1 MOL     -0.028895
    112 H48         2.4170   -1.3250    1.6640 hc        1 MOL      0.147246
    113 H49         0.9920   -2.7470    4.0400 hc        1 MOL      0.057350
    114 H50         1.8960   -1.3890    4.3530 hc        1 MOL      0.057350
    115 H51        -0.3620   -0.5890    2.7900 hc        1 MOL      0.272000
    116 H52         1.1650    0.3200    2.9480 hc        1 MOL      0.272000
    117 H53         0.4910    0.0700    1.3990 hc        1 MOL      0.272000
    118 H54         3.9520   -2.3450    3.1840 hc        1 MOL     -0.002171
    119 H55         3.4400   -3.2200    4.5050 hc        1 MOL     -0.002171
    120 H56         3.0470   -3.8190    2.7980 hc        1 MOL     -0.002171
    121 N11         2.8620   -3.3510   -0.1930 n         1 MOL      0.023420
    122 C40         3.9050   -4.0670   -0.9500 c3        1 MOL     -0.219807
    123 C41         5.2940   -3.8110   -0.2810 c         1 MOL      0.599186
    124 O16         5.5510   -2.9010    0.5640 o         1 MOL     -0.506027
    125 C42         4.0280   -3.5760   -2.4230 c3        1 MOL     -0.002909
    126 O17         4.3250   -2.1530   -2.6230 oh        1 MOL     -0.559285
    127 H57         2.7860   -2.3740   -0.4490 hn        1 MOL     -0.000342
    128 H58         3.7420   -5.1470   -0.9360 h1        1 MOL      0.107746
    129 H59         3.1280   -3.7380   -3.0080 h1        1 MOL      0.084064
    130 H60         4.7490   -4.1850   -2.9680 h1        1 MOL      0.084064
    131 H61         3.5640   -1.7060   -2.2380 ho        1 MOL      0.458275
    132 N12         6.2860   -4.5560   -0.7620 n         1 MOL     -0.537017
    133 C43         7.7020   -4.3650   -0.4270 c3        1 MOL      0.278590
    134 C44         8.1370   -2.8810   -0.7560 c         1 MOL      0.363531
    135 O18         8.9190   -2.2790   -0.0890 o         1 MOL     -0.482490
    136 C45         8.5660   -5.2920   -1.2210 c3        1 MOL     -0.489140
    137 H62         6.0390   -5.3190   -1.3800 hn        1 MOL      0.319644
    138 H63         7.9160   -4.5500    0.6270 h1        1 MOL      0.062542
    139 H64         9.5460   -4.8260   -1.1760 hc        1 MOL      0.140090
    140 H65         8.5690   -6.2190   -0.6410 hc        1 MOL      0.140090
    141 H66         8.2040   -5.5250   -2.2240 hc        1 MOL      0.140090
    142 N13         7.6880   -2.2770   -1.8800 n         1 MOL     -0.292742
    143 C46         8.0950   -0.9450   -2.2410 c3        1 MOL      0.040815
    144 C47         7.2980    0.1790   -1.4230 c         1 MOL      0.343364
    145 O19         7.7890    1.3280   -1.2730 o         1 MOL     -0.537694
    146 C48         7.9930   -0.7720   -3.7520 c3        1 MOL     -0.192767
    147 H67         7.0390   -2.7330   -2.5090 hn        1 MOL      0.254275
    148 H68         9.1400   -0.8320   -1.9410 h1        1 MOL      0.114904
    149 H69         8.3290    0.2270   -4.0250 hc        1 MOL      0.061361
    150 H70         8.5410   -1.5060   -4.3370 hc        1 MOL      0.061361
    151 H71         6.9530   -0.8360   -4.0500 hc        1 MOL      0.061361
    152 N14         6.0970   -0.0430   -0.8710 n         1 MOL      0.075639
    153 C49         5.4480    0.8890    0.0860 c3        1 MOL     -0.110164
    154 C50         6.1280    0.7940    1.4870 c         1 MOL      0.474409
    155 O20         6.4010    1.8250    2.1150 o         1 MOL     -0.555596
    156 C51         3.9800    0.5100    0.2460 c3        1 MOL     -0.071071
    157 C52         3.2050    0.9980   -0.9950 c3        1 MOL     -0.063377
    158 C53         2.0290    0.0960   -1.2560 c         1 MOL      0.950279
    159 O21         2.2160   -1.0630   -1.6220 o         1 MOL     -0.785079
    160 O22         0.9060    0.6130   -1.3050 o         1 MOL     -0.785079
    161 H72         5.6820   -0.9340   -1.1280 hn        1 MOL     -0.010173
    162 H73         5.6060    1.9340   -0.1720 h1        1 MOL      0.112322
    163 H74         3.5910    1.0550    1.1140 hc        1 MOL      0.024797
    164 H75         3.9190   -0.5790    0.3270 hc        1 MOL      0.024797
    165 H76         3.8440    1.0160   -1.8750 hc        1 MOL     -0.006065
    166 H77         2.8670    2.0230   -0.8460 hc        1 MOL     -0.006065
    167 N15         6.5600   -0.4720    1.8550 n         1 MOL     -0.210922
    168 C54         7.5040   -0.6240    2.9750 c3        1 MOL     -0.242687
    169 H78         8.4080   -1.1210    2.6220 h1        1 MOL      0.102359
    170 H79         7.7610    0.3590    3.3700 h1        1 MOL      0.102359
    171 H80         7.0440   -1.2220    3.7610 h1        1 MOL      0.102359
    172 H81         6.3360   -1.2280    1.2310 hn        1 MOL      0.241401
    173 Ca1        -1.5430    0.1640   -1.5700 Ca        1 MOL      1.777719
    174 O23        -0.1890   -1.9820   -2.4430 oh        1 MOL     -0.844851
    175 H82         0.7500   -1.8780   -2.2610 ho        1 MOL      0.413634
    176 H83        -0.2720   -2.9000   -2.7120 ho        1 MOL      0.413634
    177 O24        -2.4910   -1.0980   -3.8040 oh        1 MOL     -0.844851
    178 H84        -2.1150   -1.7330   -4.4100 ho        1 MOL      0.413634
    179 H85        -3.2870   -0.7870   -4.2490 ho        1 MOL      0.413634
@<TRIPOS>BOND
     1    1    2 1   
     2    1    4 1   
     3    1    5 1   
     4    1    6 1   
     5    2    3 2   
     6    2    7 1   
     7    7    8 1   
     8    7   15 1   
     9    8    9 1   
    10    8   11 1   
    11    8   16 1   
    12    9   10 2   
    13    9   19 1   
    14   11   12 1   
    15   11   17 1   
    16   11   18 1   
    17   12   13 1   
    18   12   14 1   
    19   19   20 1   
    20   19   28 1   
    21   20   21 1   
    22   20   23 1   
    23   20   29 1   
    24   21   22 2   
    25   21   41 1   
    26   23   24 1   
    27   23   30 1   
    28   23   31 1   
    29   24   25 1   
    30   24   32 1   
    31   24   33 1   
    32   25   26 1   
    33   25   34 1   
    34   25   35 1   
    35   26   27 1   
    36   26   36 1   
    37   26   37 1   
    38   27   38 1   
    39   27   39 1   
    40   27   40 1   
    41   41   42 1   
    42   41   49 1   
    43   42   43 1   
    44   42   45 1   
    45   42   50 1   
    46   43   44 2   
    47   43   53 1   
    48   45   46 1   
    49   45   51 1   
    50   45   52 1   
    51   46   47 1   
    52   46   48 1   
    53   53   54 1   
    54   53   57 1   
    55   54   55 1   
    56   54   58 1   
    57   54   59 1   
    58   55   56 2   
    59   55   60 1   
    60   60   61 1   
    61   60   68 1   
    62   61   62 1   
    63   61   64 1   
    64   61   69 1   
    65   62   63 2   
    66   62   74 1   
    67   64   65 1   
    68   64   70 1   
    69   64   71 1   
    70   65   66 1   
    71   65   67 2   
    72   66   72 1   
    73   66   73 1   
    74   74   75 1   
    75   74   78 1   
    76   75   76 1   
    77   75   79 1   
    78   75   80 1   
    79   76   77 2   
    80   76   81 1   
    81   81   82 1   
    82   81   93 1   
    83   82   83 1   
    84   82   85 1   
    85   82   94 1   
    86   83   84 2   
    87   83  102 1   
    88   85   86 1   
    89   85   95 1   
    90   85   96 1   
    91   86   87 ar  
    92   86   88 ar  
    93   87   89 ar  
    94   87   97 1   
    95   88   90 ar  
    96   88   98 1   
    97   89   91 ar  
    98   89   99 1   
    99   90   91 ar  
   100   90  100 1   
   101   91   92 1   
   102   92  101 1   
   103  102  103 1   
   104  102  110 1   
   105  103  104 1   
   106  103  106 1   
   107  103  111 1   
   108  104  105 2   
   109  104  121 1   
   110  106  107 1   
   111  106  108 1   
   112  106  112 1   
   113  107  109 1   
   114  107  113 1   
   115  107  114 1   
   116  108  115 1   
   117  108  116 1   
   118  108  117 1   
   119  109  118 1   
   120  109  119 1   
   121  109  120 1   
   122  121  122 1   
   123  121  127 1   
   124  122  123 1   
   125  122  125 1   
   126  122  128 1   
   127  123  124 2   
   128  123  132 1   
   129  125  126 1   
   130  125  129 1   
   131  125  130 1   
   132  126  131 1   
   133  132  133 1   
   134  132  137 1   
   135  133  134 1   
   136  133  136 1   
   137  133  138 1   
   138  134  135 2   
   139  134  142 1   
   140  136  139 1   
   141  136  140 1   
   142  136  141 1   
   143  142  143 1   
   144  142  147 1   
   145  143  144 1   
   146  143  146 1   
   147  143  148 1   
   148  144  145 2   
   149  144  152 1   
   150  146  149 1   
   151  146  150 1   
   152  146  151 1   
   153  152  153 1   
   154  152  161 1   
   155  153  154 1   
   156  153  156 1   
   157  153  162 1   
   158  154  155 2   
   159  154  167 1   
   160  156  157 1   
   161  156  163 1   
   162  156  164 1   
   163  157  158 1   
   164  157  165 1   
   165  157  166 1   
   166  158  159 1   
   167  158  160 1   
   168  167  168 1   
   169  167  172 1   
   170  168  169 1   
   171  168  170 1   
   172  168  171 1   
   173  174  175 1   
   174  174  176 1   
   175  177  178 1   
   176  177  179 1   
@<TRIPOS>SUBSTRUCTURE
     1 MOL         1 TEMP              0 ****  ****    0 ROOT
