@<TRIPOS>MOLECULE
MOL
  183   181     1     0     0
SMALL
resp


@<TRIPOS>ATOM
      1 C1         -0.0520    1.0230    6.1040 c3        1 MOL     -0.264805
      2 C2         -0.4830    1.1360    4.6320 c         1 MOL      0.864805
      3 O1          0.2340    1.5710    3.7670 o         1 MOL     -0.618464
      4 H1          1.0270    0.8720    6.1560 hc        1 MOL      0.051271
      5 H2         -0.3160    1.9390    6.6320 hc        1 MOL      0.051271
      6 H3         -0.5590    0.1770    6.5670 hc        1 MOL      0.051271
      7 N1         -1.7450    0.7080    4.4000 n         1 MOL     -0.746120
      8 C3         -2.4250    0.9970    3.1300 c3        1 MOL      0.301855
      9 C4         -2.7790    2.4610    3.0190 c         1 MOL      0.415926
     10 O2         -3.4120    3.0450    3.9200 o         1 MOL     -0.567619
     11 C5         -3.7020    0.1580    3.0670 c3        1 MOL     -0.177207
     12 C6         -4.5540    0.2370    1.6960 c         1 MOL      0.752923
     13 O3         -5.7200   -0.1170    1.6760 o         1 MOL     -0.634311
     14 O4         -4.0770    0.8410    0.7360 o         1 MOL     -0.634311
     15 H4         -2.3160    0.3000    5.1210 hn        1 MOL      0.344104
     16 H5         -1.7450    0.8460    2.2940 h1        1 MOL      0.009286
     17 H6         -4.4110    0.5290    3.8130 hc        1 MOL      0.015257
     18 H7         -3.4310   -0.8440    3.4070 hc        1 MOL      0.015257
     19 N2         -2.3590    3.0460    1.8720 n         1 MOL     -0.241755
     20 C7         -2.6840    4.4750    1.5460 c3        1 MOL      0.007245
     21 C8         -3.9750    4.6450    0.7300 c         1 MOL      0.509137
     22 O5         -4.7660    5.5870    0.9310 o         1 MOL     -0.606270
     23 C9         -1.4660    5.1770    0.8830 c3        1 MOL      0.225370
     24 C10        -0.2060    5.1230    1.8210 c3        1 MOL     -0.224292
     25 C11        -1.7760    6.6720    0.6410 c3        1 MOL     -0.222895
     26 C12         1.0010    5.7570    1.2280 c3        1 MOL     -0.043483
     27 H8         -1.9390    2.4320    1.1830 hn        1 MOL      0.107617
     28 H9         -2.7730    4.9950    2.4900 h1        1 MOL      0.029584
     29 H10        -1.2440    4.7070   -0.0810 hc        1 MOL      0.020719
     30 H11         0.0520    4.0730    1.9470 hc        1 MOL      0.085188
     31 H12        -0.4080    5.5300    2.8110 hc        1 MOL      0.085188
     32 H13        -2.7170    6.9480    0.1710 hc        1 MOL      0.039508
     33 H14        -1.6540    7.1820    1.6020 hc        1 MOL      0.039508
     34 H15        -1.0130    7.1890    0.0620 hc        1 MOL      0.039508
     35 H16         1.1870    5.4590    0.1980 hc        1 MOL      0.009621
     36 H17         1.0000    6.8420    1.3190 hc        1 MOL      0.009621
     37 H18         1.9130    5.4610    1.7510 hc        1 MOL      0.009621
     38 N3         -4.1460    3.7820   -0.2870 n         1 MOL     -0.245389
     39 C13        -5.0220    4.1010   -1.3950 c3        1 MOL      0.017498
     40 C14        -6.1070    3.0040   -1.6710 c         1 MOL      0.383074
     41 O6         -6.7570    3.0180   -2.7150 o         1 MOL     -0.482873
     42 C15        -4.2110    4.2290   -2.6410 c3        1 MOL     -0.158668
     43 C16        -3.2930    3.0100   -2.9770 c         1 MOL      0.740550
     44 O7         -2.4670    3.0610   -3.9230 o         1 MOL     -0.684676
     45 O8         -3.3960    1.9470   -2.2740 o         1 MOL     -0.684676
     46 H19        -3.5350    2.9760   -0.3700 hn        1 MOL      0.134037
     47 H20        -5.5120    5.0430   -1.1280 h1        1 MOL      0.093412
     48 H21        -3.4830    5.0300   -2.4710 hc        1 MOL      0.022502
     49 H22        -4.8850    4.4790   -3.4540 hc        1 MOL      0.022502
     50 N4         -6.4340    2.2390   -0.6020 n         1 MOL     -0.167219
     51 C17        -7.7490    1.7900   -0.3740 c3        1 MOL     -0.271755
     52 C18        -8.2490    0.4430   -0.9430 c         1 MOL      0.577927
     53 O9         -9.3740    0.2650   -1.3730 o         1 MOL     -0.603075
     54 H23        -5.7740    2.2030    0.1640 hn        1 MOL      0.224461
     55 H24        -8.4470    2.5500   -0.7450 h1        1 MOL      0.101357
     56 H25        -7.8090    1.8270    0.7070 h1        1 MOL      0.101357
     57 N5         -7.4110   -0.6130   -0.8000 n         1 MOL     -0.217783
     58 C19        -7.5870   -2.0150   -1.2630 c3        1 MOL      0.119712
     59 C20        -7.4520   -3.0840   -0.1670 c         1 MOL      0.271052
     60 O10        -7.9190   -4.2090   -0.3720 o         1 MOL     -0.538608
     61 C21        -6.5820   -2.3090   -2.4160 c3        1 MOL      0.011312
     62 C22        -5.1230   -1.8280   -2.0570 c         1 MOL      0.509942
     63 O11        -4.4270   -1.1950   -2.8900 o         1 MOL     -0.675181
     64 O12        -4.7610   -1.8660   -0.9070 o         1 MOL     -0.675181
     65 H26        -6.5830   -0.3710   -0.2740 hn        1 MOL      0.090601
     66 H27        -8.5730   -2.1550   -1.7240 h1        1 MOL      0.052165
     67 H28        -6.9310   -1.7250   -3.2670 hc        1 MOL      0.002743
     68 H29        -6.6670   -3.3450   -2.7210 hc        1 MOL      0.002743
     69 N6         -6.7130   -2.8430    0.9160 n         1 MOL     -0.025556
     70 C23        -6.4040   -3.8110    1.9760 c3        1 MOL     -0.146887
     71 C24        -5.0440   -4.5040    1.9050 c         1 MOL      0.663866
     72 O13        -4.8720   -5.5200    2.5330 o         1 MOL     -0.612158
     73 H30        -6.2580   -1.9410    0.9660 hn        1 MOL      0.050691
     74 H31        -7.0950   -4.6510    1.8900 h1        1 MOL      0.061418
     75 H32        -6.4650   -3.3210    2.9420 h1        1 MOL      0.061418
     76 N7         -4.1140   -3.9290    1.1500 n         1 MOL     -0.397595
     77 C25        -2.7980   -4.4280    0.9840 c3        1 MOL     -0.005791
     78 C26        -1.7130   -3.3260    0.8910 c         1 MOL      0.752385
     79 O14        -2.0630   -2.1660    0.7930 o         1 MOL     -0.737654
     80 C27        -2.7560   -5.3430   -0.3390 c3        1 MOL     -0.031604
     81 C28        -3.2350   -4.6500   -1.6210 c3        1 MOL     -0.178495
     82 C29        -2.1650   -3.8060   -2.2120 c         1 MOL      0.529006
     83 N8         -1.1900   -4.4380   -2.8290 n         1 MOL     -0.740949
     84 O15        -2.0300   -2.6360   -2.0020 o         1 MOL     -0.450830
     85 H33        -4.4260   -3.2140    0.4980 hn        1 MOL      0.306295
     86 H34        -2.5200   -5.0620    1.8150 h1        1 MOL      0.054405
     87 H35        -3.3930   -6.1720   -0.0440 hc        1 MOL      0.011004
     88 H36        -1.7920   -5.7850   -0.5540 hc        1 MOL      0.011004
     89 H37        -4.1820   -4.1910   -1.3690 hc        1 MOL      0.080686
     90 H38        -3.5410   -5.4540   -2.2860 hc        1 MOL      0.080686
     91 H39        -1.2430   -5.3690   -3.2170 hn        1 MOL      0.350932
     92 H40        -0.3660   -3.8490   -2.9040 hn        1 MOL      0.350932
     93 N9         -0.4560   -3.7290    1.0960 n         1 MOL     -0.638852
     94 C30         0.5940   -2.7540    1.4830 c3        1 MOL      0.152089
     95 C31         1.9090   -3.0260    0.7300 c         1 MOL      0.478265
     96 O16         2.6700   -3.9820    1.0150 o         1 MOL     -0.560930
     97 C32         0.9570   -2.9760    3.0300 c3        1 MOL      0.143019
     98 C33         1.9840   -2.0560    3.6620 c3        1 MOL     -0.245025
     99 C34        -0.3440   -2.9140    3.9630 c3        1 MOL     -0.245025
    100 H41        -0.3150   -4.7250    1.1040 hn        1 MOL      0.315786
    101 H42         0.2650   -1.7330    1.3390 h1        1 MOL      0.167945
    102 H43         1.4610   -3.9450    3.1010 hc        1 MOL     -0.020316
    103 H44         2.2070   -2.3510    4.6910 hc        1 MOL      0.052239
    104 H45         2.9300   -2.2370    3.1500 hc        1 MOL      0.052239
    105 H46         1.6460   -1.0240    3.6410 hc        1 MOL      0.052239
    106 H47        -1.1210   -3.6350    3.7020 hc        1 MOL      0.052239
    107 H48        -0.1630   -3.1350    5.0150 hc        1 MOL      0.052239
    108 H49        -0.6820   -1.8830    3.8500 hc        1 MOL      0.052239
    109 N10         2.1370   -2.1980   -0.2880 n         1 MOL     -0.259149
    110 C35         3.2680   -2.2980   -1.2170 c3        1 MOL      0.007000
    111 C36         4.5650   -1.8550   -0.5250 c         1 MOL      0.472636
    112 O17         4.4330   -1.0970    0.4320 o         1 MOL     -0.325859
    113 C37         2.8960   -1.5340   -2.5000 c3        1 MOL     -0.274512
    114 C38         1.6880   -2.1060   -3.1820 c         1 MOL      0.809853
    115 N11         0.6230   -1.3690   -3.1730 n         1 MOL     -0.799383
    116 O18         1.6680   -3.2000   -3.6370 o         1 MOL     -0.647103
    117 H50         1.3800   -1.5890   -0.5660 hn        1 MOL      0.138703
    118 H51         3.5450   -3.3140   -1.4830 h1        1 MOL      0.054598
    119 H52         3.7030   -1.5340   -3.2300 hc        1 MOL      0.067807
    120 H53         2.6380   -0.5160   -2.1890 hc        1 MOL      0.067807
    121 H54         0.6190   -0.7130   -2.4110 hn        1 MOL      0.371633
    122 H55        -0.2350   -1.7960   -3.5240 hn        1 MOL      0.371633
    123 N12         5.7500   -2.2450   -1.0200 n         1 MOL     -0.620569
    124 C39         7.0470   -1.7250   -0.4610 c3        1 MOL      0.373211
    125 C40         7.0550   -0.2130   -0.3030 c         1 MOL      0.428592
    126 O19         7.4570    0.3050    0.7440 o         1 MOL     -0.482094
    127 C41         8.2760   -2.2760   -1.2050 c3        1 MOL     -0.229769
    128 C42         9.5630   -1.7800   -0.6720 ca        1 MOL      0.045429
    129 C43         9.8990   -2.0820    0.6340 ca        1 MOL     -0.127499
    130 C44        10.4720   -0.9960   -1.4450 ca        1 MOL     -0.127499
    131 C45        11.0940   -1.6190    1.2170 ca        1 MOL     -0.336377
    132 C46        11.7330   -0.5900   -0.9080 ca        1 MOL     -0.336377
    133 C47        12.0450   -0.9200    0.4720 ca        1 MOL      0.443025
    134 O20        13.2870   -0.6310    0.9080 oh        1 MOL     -0.531682
    135 H56         5.7380   -2.9610   -1.7310 hn        1 MOL      0.331497
    136 H57         7.1550   -2.2000    0.5120 h1        1 MOL      0.020831
    137 H58         8.1000   -1.9810   -2.2460 hc        1 MOL      0.058765
    138 H59         8.3040   -3.3520   -1.0940 hc        1 MOL      0.058765
    139 H60         9.1680   -2.5710    1.2640 ha        1 MOL      0.132687
    140 H61        10.2190   -0.7560   -2.4660 ha        1 MOL      0.132687
    141 H62        11.3390   -1.9410    2.2160 ha        1 MOL      0.160606
    142 H63        12.3950    0.0090   -1.5150 ha        1 MOL      0.160606
    143 H64        13.7860   -0.1040    0.2810 ho        1 MOL      0.369908
    144 N13         6.5880    0.4910   -1.3550 n         1 MOL     -0.386655
    145 C48         6.5160    1.9460   -1.3630 c3        1 MOL      0.085257
    146 C49         5.5810    2.3940   -0.1870 c         1 MOL      0.295611
    147 O21         5.6700    3.5210    0.3160 o         1 MOL     -0.518119
    148 C50         6.0900    2.4690   -2.7280 c3        1 MOL     -0.161871
    149 C51         4.6560    2.1490   -3.0400 c3        1 MOL     -0.093693
    150 C52         4.3250    2.5470   -4.5280 c         1 MOL      0.708575
    151 O22         3.5340    3.4550   -4.7830 o         1 MOL     -0.726582
    152 O23         4.6860    1.7590   -5.4250 o         1 MOL     -0.726582
    153 H65         6.4390   -0.0830   -2.1770 hn        1 MOL      0.294100
    154 H66         7.4880    2.3990   -1.1820 h1        1 MOL      0.035457
    155 H67         6.6580    2.0910   -3.5740 hc        1 MOL      0.043567
    156 H68         6.1910    3.5540   -2.7210 hc        1 MOL      0.043567
    157 H69         3.9550    2.6080   -2.3430 hc        1 MOL     -0.011347
    158 H70         4.5360    1.0780   -2.9160 hc        1 MOL     -0.011347
    159 N14         4.5370    1.6600    0.1150 n         1 MOL      0.093595
    160 C53         3.6090    2.0090    1.1560 c3        1 MOL     -0.313443
    161 C54         4.3570    1.8010    2.5210 c         1 MOL      0.456987
    162 O24         4.1430    2.5780    3.4850 o         1 MOL     -0.569346
    163 C55         2.2320    1.3790    1.0610 c3        1 MOL      0.484271
    164 C56         1.3050    1.9860   -0.0300 c3        1 MOL     -0.104324
    165 C57         0.0880    1.1570   -0.2750 c         1 MOL      0.682743
    166 O25        -1.1000    1.5000   -0.0740 o         1 MOL     -0.708634
    167 O26         0.2140    0.0510   -0.7550 o         1 MOL     -0.708634
    168 H71         4.4600    0.6910   -0.1490 hn        1 MOL      0.116659
    169 H72         3.2390    3.0340    1.1900 h1        1 MOL      0.139624
    170 H73         1.7920    1.4970    2.0500 hc        1 MOL     -0.131746
    171 H74         2.4960    0.3280    0.9310 hc        1 MOL     -0.131746
    172 H75         1.8280    1.9210   -0.9860 hc        1 MOL      0.036368
    173 H76         1.0870    3.0320    0.1690 hc        1 MOL      0.036368
    174 N15         5.0500    0.7030    2.6210 n         1 MOL     -0.025179
    175 C58         5.7970    0.2650    3.7910 c3        1 MOL     -0.225840
    176 H77         6.8540    0.1790    3.5370 h1        1 MOL      0.082558
    177 H78         5.6750    0.9910    4.5940 h1        1 MOL      0.082558
    178 H79         5.4230   -0.7050    4.1190 h1        1 MOL      0.082558
    179 H80         5.2040    0.1580    1.7880 hn        1 MOL      0.021034
    180 Ca1        -2.6720   -0.2450   -1.0810 Ca        1 MOL      1.733766
    181 O27        -1.7030    0.2770   -3.5080 oh        1 MOL     -0.931707
    182 H81        -2.2340    1.0740   -3.5650 ho        1 MOL      0.435289
    183 H82        -0.9470    0.4490   -4.0710 ho        1 MOL      0.435289
@<TRIPOS>BOND
     1    1    2 1   
     2    1    4 1   
     3    1    5 1   
     4    1    6 1   
     5    2    3 2   
     6    2    7 1   
     7    7    8 1   
     8    7   15 1   
     9    8    9 1   
    10    8   11 1   
    11    8   16 1   
    12    9   10 2   
    13    9   19 1   
    14   11   12 1   
    15   11   17 1   
    16   11   18 1   
    17   12   13 1   
    18   12   14 1   
    19   19   20 1   
    20   19   27 1   
    21   20   21 1   
    22   20   23 1   
    23   20   28 1   
    24   21   22 2   
    25   21   38 1   
    26   23   24 1   
    27   23   25 1   
    28   23   29 1   
    29   24   26 1   
    30   24   30 1   
    31   24   31 1   
    32   25   32 1   
    33   25   33 1   
    34   25   34 1   
    35   26   35 1   
    36   26   36 1   
    37   26   37 1   
    38   38   39 1   
    39   38   46 1   
    40   39   40 1   
    41   39   42 1   
    42   39   47 1   
    43   40   41 2   
    44   40   50 1   
    45   42   43 1   
    46   42   48 1   
    47   42   49 1   
    48   43   44 1   
    49   43   45 1   
    50   50   51 1   
    51   50   54 1   
    52   51   52 1   
    53   51   55 1   
    54   51   56 1   
    55   52   53 2   
    56   52   57 1   
    57   57   58 1   
    58   57   65 1   
    59   58   59 1   
    60   58   61 1   
    61   58   66 1   
    62   59   60 2   
    63   59   69 1   
    64   61   62 1   
    65   61   67 1   
    66   61   68 1   
    67   62   63 1   
    68   62   64 1   
    69   69   70 1   
    70   69   73 1   
    71   70   71 1   
    72   70   74 1   
    73   70   75 1   
    74   71   72 2   
    75   71   76 1   
    76   76   77 1   
    77   76   85 1   
    78   77   78 1   
    79   77   80 1   
    80   77   86 1   
    81   78   79 2   
    82   78   93 1   
    83   80   81 1   
    84   80   87 1   
    85   80   88 1   
    86   81   82 1   
    87   81   89 1   
    88   81   90 1   
    89   82   83 1   
    90   82   84 2   
    91   83   91 1   
    92   83   92 1   
    93   93   94 1   
    94   93  100 1   
    95   94   95 1   
    96   94   97 1   
    97   94  101 1   
    98   95   96 2   
    99   95  109 1   
   100   97   98 1   
   101   97   99 1   
   102   97  102 1   
   103   98  103 1   
   104   98  104 1   
   105   98  105 1   
   106   99  106 1   
   107   99  107 1   
   108   99  108 1   
   109  109  110 1   
   110  109  117 1   
   111  110  111 1   
   112  110  113 1   
   113  110  118 1   
   114  111  112 2   
   115  111  123 1   
   116  113  114 1   
   117  113  119 1   
   118  113  120 1   
   119  114  115 1   
   120  114  116 2   
   121  115  121 1   
   122  115  122 1   
   123  123  124 1   
   124  123  135 1   
   125  124  125 1   
   126  124  127 1   
   127  124  136 1   
   128  125  126 2   
   129  125  144 1   
   130  127  128 1   
   131  127  137 1   
   132  127  138 1   
   133  128  129 ar  
   134  128  130 ar  
   135  129  131 ar  
   136  129  139 1   
   137  130  132 ar  
   138  130  140 1   
   139  131  133 ar  
   140  131  141 1   
   141  132  133 ar  
   142  132  142 1   
   143  133  134 1   
   144  134  143 1   
   145  144  145 1   
   146  144  153 1   
   147  145  146 1   
   148  145  148 1   
   149  145  154 1   
   150  146  147 2   
   151  146  159 1   
   152  148  149 1   
   153  148  155 1   
   154  148  156 1   
   155  149  150 1   
   156  149  157 1   
   157  149  158 1   
   158  150  151 1   
   159  150  152 1   
   160  159  160 1   
   161  159  168 1   
   162  160  161 1   
   163  160  163 1   
   164  160  169 1   
   165  161  162 2   
   166  161  174 1   
   167  163  164 1   
   168  163  170 1   
   169  163  171 1   
   170  164  165 1   
   171  164  172 1   
   172  164  173 1   
   173  165  166 1   
   174  165  167 1   
   175  174  175 1   
   176  174  179 1   
   177  175  176 1   
   178  175  177 1   
   179  175  178 1   
   180  181  182 1   
   181  181  183 1   
@<TRIPOS>SUBSTRUCTURE
     1 MOL         1 TEMP              0 ****  ****    0 ROOT
