@<TRIPOS>MOLECULE
MOL
  175   173     1     0     0
SMALL
resp


@<TRIPOS>ATOM
      1 C1          0.4160    4.5790    5.0590 c3        1 MOL     -0.437799
      2 C2         -0.3230    4.2760    3.7600 c         1 MOL      0.730345
      3 O1          0.3130    4.0930    2.7400 o         1 MOL     -0.529016
      4 H1          1.4670    4.7710    4.8420 hc        1 MOL      0.115657
      5 H2         -0.0230    5.4580    5.5300 hc        1 MOL      0.115657
      6 H3          0.3340    3.7260    5.7320 hc        1 MOL      0.115657
      7 N1         -1.6740    4.2360    3.6410 n         1 MOL     -0.698915
      8 C3         -2.3860    3.8940    2.4550 c3        1 MOL      0.325423
      9 C4         -2.4030    5.0070    1.3510 c         1 MOL      0.425038
     10 O2         -2.6900    6.2170    1.5830 o         1 MOL     -0.584531
     11 C5         -3.7590    3.1990    2.7190 c3        1 MOL     -0.300792
     12 C6         -4.2610    2.6050    1.4300 c         1 MOL      0.692822
     13 O3         -5.4720    2.3570    1.3130 o         1 MOL     -0.625953
     14 O4         -3.4750    2.1730    0.5040 o         1 MOL     -0.625953
     15 H4         -2.2130    4.3160    4.4970 hn        1 MOL      0.313439
     16 H5         -1.7560    3.1230    2.0070 h1        1 MOL      0.009281
     17 H6         -4.4970    3.8750    3.1630 hc        1 MOL      0.064454
     18 H7         -3.5240    2.3760    3.3960 hc        1 MOL      0.064454
     19 N2         -2.1060    4.6220    0.1130 n         1 MOL     -0.277507
     20 C7         -2.2500    5.3740   -1.1250 c3        1 MOL      0.207683
     21 C8         -3.4280    4.8320   -2.0530 c         1 MOL      0.383648
     22 O5         -3.6420    5.4490   -3.0810 o         1 MOL     -0.551893
     23 C9         -0.9070    5.3040   -1.8310 c3        1 MOL     -0.276386
     24 H8         -1.8110    3.6600    0.0720 hn        1 MOL      0.278594
     25 H9         -2.4300    6.4300   -0.9050 h1        1 MOL      0.033710
     26 H10        -0.4600    4.3200   -1.8710 hc        1 MOL      0.071084
     27 H11        -0.9290    5.6360   -2.8630 hc        1 MOL      0.071084
     28 H12        -0.2040    5.8430   -1.1890 hc        1 MOL      0.071084
     29 N3         -4.0740    3.6830   -1.8150 n         1 MOL     -0.322971
     30 C10        -4.9390    3.0360   -2.8800 c3        1 MOL      0.213095
     31 C11        -6.2680    2.3850   -2.4670 c         1 MOL      0.236211
     32 O6         -7.2210    2.2780   -3.2380 o         1 MOL     -0.536099
     33 C12        -4.0970    2.0250   -3.7290 c3        1 MOL     -0.225831
     34 C13        -3.3970    0.9070   -2.9060 c         1 MOL      0.785898
     35 O7         -3.9360    0.4370   -1.9270 o         1 MOL     -0.742580
     36 O8         -2.2670    0.5050   -3.2570 o         1 MOL     -0.742580
     37 H13        -3.8200    3.1550   -0.9900 hn        1 MOL      0.125146
     38 H14        -5.2720    3.8320   -3.5470 h1        1 MOL      0.057693
     39 H15        -3.3310    2.6360   -4.2140 hc        1 MOL      0.055571
     40 H16        -4.6330    1.6490   -4.5990 hc        1 MOL      0.055571
     41 N4         -6.3970    1.9300   -1.2200 n         1 MOL      0.019473
     42 C14        -7.4170    1.0570   -0.6380 c3        1 MOL     -0.339366
     43 C15        -7.4320   -0.4450   -1.1150 c         1 MOL      0.570554
     44 O9         -8.4400   -1.0780   -0.8860 o         1 MOL     -0.579122
     45 H17        -5.7270    2.2360   -0.5220 hn        1 MOL      0.075312
     46 H18        -8.3350    1.5240   -0.9720 h1        1 MOL      0.129884
     47 H19        -7.3740    1.0680    0.4480 h1        1 MOL      0.129884
     48 N5         -6.2770   -0.9550   -1.6620 n         1 MOL     -0.295511
     49 C16        -6.1710   -2.3670   -2.0660 c3        1 MOL     -0.144795
     50 C17        -6.3250   -3.4140   -0.9500 c         1 MOL      0.493132
     51 O10        -6.6440   -4.5490   -1.2930 o         1 MOL     -0.558471
     52 C18        -4.9230   -2.6210   -2.9530 c3        1 MOL      0.000182
     53 C19        -3.5260   -2.5890   -2.2830 c         1 MOL      0.437176
     54 N6         -2.4320   -3.0430   -2.9320 n         1 MOL     -0.607189
     55 O11        -3.3710   -2.2220   -1.1230 o         1 MOL     -0.329876
     56 H20        -5.4490   -0.3880   -1.7730 hn        1 MOL      0.275149
     57 H21        -6.9850   -2.4720   -2.7760 h1        1 MOL      0.108109
     58 H22        -4.9500   -1.8780   -3.7450 hc        1 MOL      0.023640
     59 H23        -4.9400   -3.5410   -3.5460 hc        1 MOL      0.023640
     60 H24        -2.5010   -3.3090   -3.9060 hn        1 MOL      0.314253
     61 H25        -1.5200   -2.9670   -2.5040 hn        1 MOL      0.314253
     62 N7         -5.9830   -3.0250    0.3190 n         1 MOL     -0.144097
     63 C20        -6.1780   -3.8730    1.5080 c3        1 MOL     -0.191117
     64 C21        -4.8680   -4.4200    2.1320 c         1 MOL      0.533104
     65 O12        -4.9240   -5.1090    3.1580 o         1 MOL     -0.600330
     66 H26        -5.5620   -2.1090    0.3140 hn        1 MOL      0.124166
     67 H27        -6.9270   -4.6100    1.2130 h1        1 MOL      0.102736
     68 H28        -6.6750   -3.2570    2.2510 h1        1 MOL      0.102736
     69 N8         -3.7370   -4.2110    1.4950 n         1 MOL     -0.119516
     70 C22        -2.3780   -4.5920    1.8270 c3        1 MOL     -0.275038
     71 C23        -1.3890   -3.3770    1.7350 c         1 MOL      0.804119
     72 O13        -1.5600   -2.4270    1.0140 o         1 MOL     -0.742174
     73 C24        -1.8450   -5.6820    0.9070 c3        1 MOL      0.557669
     74 C25        -2.5290   -7.0140    1.1720 c3        1 MOL     -0.262355
     75 O14        -1.9670   -5.3090   -0.4830 oh        1 MOL     -0.672898
     76 H29        -3.7520   -3.8160    0.5690 hn        1 MOL      0.110677
     77 H30        -2.2860   -4.9330    2.8560 h1        1 MOL      0.085212
     78 H31        -0.8020   -5.8640    1.1610 h1        1 MOL     -0.059674
     79 H32        -1.7040   -4.3930   -0.5350 ho        1 MOL      0.394128
     80 H33        -2.3970   -7.7390    0.3710 hc        1 MOL      0.060838
     81 H34        -2.0530   -7.5140    2.0180 hc        1 MOL      0.060838
     82 H35        -3.5990   -6.9070    1.3110 hc        1 MOL      0.060838
     83 N9         -0.3170   -3.4400    2.5610 n         1 MOL     -0.728573
     84 C26         0.8480   -2.5010    2.3770 c3        1 MOL      0.310751
     85 C27         1.6200   -2.9540    1.1270 c         1 MOL      0.488534
     86 O15         1.9600   -4.1330    1.0500 o         1 MOL     -0.600463
     87 C28         1.7000   -2.4040    3.6510 c3        1 MOL     -0.021893
     88 C29         1.2570   -1.2020    4.5710 c3        1 MOL      0.207615
     89 C30         3.2180   -2.1960    3.3440 c3        1 MOL     -0.274668
     90 C31         1.9430   -1.1450    5.8530 c3        1 MOL     -0.079297
     91 H36        -0.1270   -4.3090    3.0380 hn        1 MOL      0.318819
     92 H37         0.4530   -1.5080    2.1710 h1        1 MOL     -0.009260
     93 H38         1.5850   -3.3530    4.1690 hc        1 MOL      0.022492
     94 H39         0.2020   -1.3220    4.8320 hc        1 MOL     -0.057972
     95 H40         1.2860   -0.2650    4.0120 hc        1 MOL     -0.057972
     96 H41         3.2920   -1.3090    2.7040 hc        1 MOL      0.056777
     97 H42         3.8500   -1.9850    4.2120 hc        1 MOL      0.056777
     98 H43         3.6540   -3.0320    2.7990 hc        1 MOL      0.056777
     99 H44         1.6910   -2.0720    6.3470 hc        1 MOL      0.005911
    100 H45         3.0230   -1.0260    5.8990 hc        1 MOL      0.005911
    101 H46         1.5120   -0.3160    6.4260 hc        1 MOL      0.005911
    102 N10         1.9050   -1.9580    0.3730 n         1 MOL     -0.193558
    103 C32         2.7880   -1.9970   -0.7800 c3        1 MOL      0.151390
    104 C33         4.2020   -1.4820   -0.4690 c         1 MOL      0.395911
    105 O16         4.3870   -0.6780    0.4440 o         1 MOL     -0.267173
    106 C34         1.9900   -1.2420   -1.8880 c3        1 MOL     -0.494057
    107 C35         0.5610   -1.7880   -2.2340 c         1 MOL      0.832073
    108 O17        -0.3910   -1.4050   -1.5320 o         1 MOL     -0.690056
    109 O18         0.3450   -2.6090   -3.1250 o         1 MOL     -0.690056
    110 H47         1.6430   -1.0750    0.7950 hn        1 MOL      0.161675
    111 H48         2.8360   -3.0300   -1.1490 h1        1 MOL      0.055654
    112 H49         2.5680   -1.1840   -2.8120 hc        1 MOL      0.123247
    113 H50         1.8580   -0.1840   -1.6440 hc        1 MOL      0.123247
    114 N11         5.1700   -1.8290   -1.2800 n         1 MOL     -0.688146
    115 C36         6.5660   -1.4850   -1.0990 c3        1 MOL      0.356578
    116 C37         6.8250    0.0540   -1.0900 c         1 MOL      0.210146
    117 O19         7.6050    0.4490   -0.1830 o         1 MOL     -0.455969
    118 C38         7.4030   -2.2320   -2.1150 c3        1 MOL     -0.163555
    119 C39         8.8870   -2.1280   -2.0870 ca        1 MOL      0.203308
    120 C40         9.4930   -2.0630   -0.8420 ca        1 MOL     -0.227586
    121 C41         9.6180   -2.0800   -3.3090 ca        1 MOL     -0.227586
    122 C42        10.8790   -1.9590   -0.7770 ca        1 MOL     -0.068110
    123 C43        10.9980   -1.8790   -3.1890 ca        1 MOL     -0.068110
    124 C44        11.6660   -1.7800   -1.9360 ca        1 MOL     -0.188655
    125 H51         4.9180   -2.4290   -2.0510 hn        1 MOL      0.365878
    126 H52         6.9590   -1.8240   -0.1400 h1        1 MOL      0.075839
    127 H53         6.9410   -2.0400   -3.0860 hc        1 MOL      0.044822
    128 H54         7.3730   -3.3180   -2.0160 hc        1 MOL      0.044822
    129 H55         8.8990   -1.9850    0.0530 ha        1 MOL      0.127927
    130 H56         9.1650   -2.0580   -4.2890 ha        1 MOL      0.127927
    131 H57        11.4200   -1.8820    0.1590 ha        1 MOL      0.099808
    132 H58        11.6240   -1.7180   -4.0560 ha        1 MOL      0.099808
    133 H59        12.7030   -1.4890   -1.8950 ha        1 MOL      0.127262
    134 N12         6.0450    0.9200   -1.8540 n         1 MOL     -0.043549
    135 C45         6.3380    2.3400   -1.7020 c3        1 MOL      0.079514
    136 C46         5.5860    2.9110   -0.4900 c         1 MOL      0.306288
    137 O20         5.8960    4.0090   -0.0510 o         1 MOL     -0.529390
    138 C47         5.7210    2.9880   -2.9680 c3        1 MOL     -0.220680
    139 C48         4.7220    1.9130   -3.4550 c3        1 MOL      0.063199
    140 C49         5.2790    0.6240   -3.0940 c3        1 MOL     -0.023005
    141 H60         7.3840    2.6170   -1.6030 h1        1 MOL      0.072051
    142 H61         5.2110    3.9310   -2.7820 hc        1 MOL      0.073679
    143 H62         6.4940    3.1280   -3.7180 hc        1 MOL      0.073679
    144 H63         3.7770    1.9970   -2.9160 hc        1 MOL      0.025270
    145 H64         4.4610    1.9260   -4.5100 hc        1 MOL      0.025270
    146 H65         4.4500   -0.0620   -2.9070 h1        1 MOL      0.022148
    147 H66         6.0090    0.3920   -3.8710 h1        1 MOL      0.022148
    148 N13         4.7680    2.1290    0.1410 n         1 MOL      0.033127
    149 C50         4.0940    2.5690    1.3720 c3        1 MOL     -0.276657
    150 C51         4.9560    2.0740    2.5810 c         1 MOL      0.418813
    151 O21         5.0180    2.7070    3.6930 o         1 MOL     -0.555710
    152 C52         2.6820    2.0410    1.4210 c3        1 MOL     -0.019458
    153 C53         1.8240    2.4930    0.3260 c3        1 MOL      0.202941
    154 C54         0.4300    1.7800    0.3200 c         1 MOL      0.476213
    155 O22         0.1010    0.8170    1.0780 o         1 MOL     -0.711258
    156 O23        -0.4340    2.1160   -0.5300 o         1 MOL     -0.711258
    157 H67         4.6630    1.1650   -0.1360 hn        1 MOL      0.083800
    158 H68         4.0510    3.6610    1.4110 h1        1 MOL      0.165180
    159 H69         2.2110    2.3720    2.3540 hc        1 MOL      0.045622
    160 H70         2.6860    0.9500    1.4410 hc        1 MOL      0.045622
    161 H71         2.2990    2.2250   -0.6140 hc        1 MOL     -0.028872
    162 H72         1.6510    3.5700    0.3630 hc        1 MOL     -0.028872
    163 N14         5.6240    0.9460    2.4090 n         1 MOL     -0.019605
    164 C55         6.5780    0.4360    3.3820 c3        1 MOL     -0.208654
    165 H73         7.5830    0.7590    3.1080 h1        1 MOL      0.082959
    166 H74         6.3290    0.8200    4.3710 h1        1 MOL      0.082959
    167 H75         6.5380   -0.6540    3.3940 h1        1 MOL      0.082959
    168 H76         5.4070    0.4090    1.5840 hn        1 MOL      0.026653
    169 Ca1        -2.0580    0.0580   -0.1520 Ca        1 MOL      1.746420
    170 O24        -4.6590   -0.3060    1.0040 oh        1 MOL     -0.766852
    171 H77        -4.6100   -0.3680    1.9590 ho        1 MOL      0.378403
    172 H78        -4.9660    0.5820    0.8330 ho        1 MOL      0.378403
    173 O25        -1.9650    0.4330    2.6720 oh        1 MOL     -0.766852
    174 H79        -1.0730    0.7680    2.5810 ho        1 MOL      0.378403
    175 H80        -2.3280    0.9190    3.4050 ho        1 MOL      0.378403
@<TRIPOS>BOND
     1    1    2 1   
     2    1    4 1   
     3    1    5 1   
     4    1    6 1   
     5    2    3 2   
     6    2    7 1   
     7    7    8 1   
     8    7   15 1   
     9    8    9 1   
    10    8   11 1   
    11    8   16 1   
    12    9   10 2   
    13    9   19 1   
    14   11   12 1   
    15   11   17 1   
    16   11   18 1   
    17   12   13 1   
    18   12   14 1   
    19   19   20 1   
    20   19   24 1   
    21   20   21 1   
    22   20   23 1   
    23   20   25 1   
    24   21   22 2   
    25   21   29 1   
    26   23   26 1   
    27   23   27 1   
    28   23   28 1   
    29   29   30 1   
    30   29   37 1   
    31   30   31 1   
    32   30   33 1   
    33   30   38 1   
    34   31   32 2   
    35   31   41 1   
    36   33   34 1   
    37   33   39 1   
    38   33   40 1   
    39   34   35 1   
    40   34   36 1   
    41   41   42 1   
    42   41   45 1   
    43   42   43 1   
    44   42   46 1   
    45   42   47 1   
    46   43   44 2   
    47   43   48 1   
    48   48   49 1   
    49   48   56 1   
    50   49   50 1   
    51   49   52 1   
    52   49   57 1   
    53   50   51 2   
    54   50   62 1   
    55   52   53 1   
    56   52   58 1   
    57   52   59 1   
    58   53   54 1   
    59   53   55 2   
    60   54   60 1   
    61   54   61 1   
    62   62   63 1   
    63   62   66 1   
    64   63   64 1   
    65   63   67 1   
    66   63   68 1   
    67   64   65 2   
    68   64   69 1   
    69   69   70 1   
    70   69   76 1   
    71   70   71 1   
    72   70   73 1   
    73   70   77 1   
    74   71   72 2   
    75   71   83 1   
    76   73   74 1   
    77   73   75 1   
    78   73   78 1   
    79   74   80 1   
    80   74   81 1   
    81   74   82 1   
    82   75   79 1   
    83   83   84 1   
    84   83   91 1   
    85   84   85 1   
    86   84   87 1   
    87   84   92 1   
    88   85   86 2   
    89   85  102 1   
    90   87   88 1   
    91   87   89 1   
    92   87   93 1   
    93   88   90 1   
    94   88   94 1   
    95   88   95 1   
    96   89   96 1   
    97   89   97 1   
    98   89   98 1   
    99   90   99 1   
   100   90  100 1   
   101   90  101 1   
   102  102  103 1   
   103  102  110 1   
   104  103  104 1   
   105  103  106 1   
   106  103  111 1   
   107  104  105 2   
   108  104  114 1   
   109  106  107 1   
   110  106  112 1   
   111  106  113 1   
   112  107  108 1   
   113  107  109 1   
   114  114  115 1   
   115  114  125 1   
   116  115  116 1   
   117  115  118 1   
   118  115  126 1   
   119  116  117 2   
   120  116  134 1   
   121  118  119 1   
   122  118  127 1   
   123  118  128 1   
   124  119  120 ar  
   125  119  121 ar  
   126  120  122 ar  
   127  120  129 1   
   128  121  123 ar  
   129  121  130 1   
   130  122  124 ar  
   131  122  131 1   
   132  123  124 ar  
   133  123  132 1   
   134  124  133 1   
   135  134  135 1   
   136  134  140 1   
   137  135  136 1   
   138  135  138 1   
   139  135  141 1   
   140  136  137 2   
   141  136  148 1   
   142  138  139 1   
   143  138  142 1   
   144  138  143 1   
   145  139  140 1   
   146  139  144 1   
   147  139  145 1   
   148  140  146 1   
   149  140  147 1   
   150  148  149 1   
   151  148  157 1   
   152  149  150 1   
   153  149  152 1   
   154  149  158 1   
   155  150  151 2   
   156  150  163 1   
   157  152  153 1   
   158  152  159 1   
   159  152  160 1   
   160  153  154 1   
   161  153  161 1   
   162  153  162 1   
   163  154  155 1   
   164  154  156 1   
   165  163  164 1   
   166  163  168 1   
   167  164  165 1   
   168  164  166 1   
   169  164  167 1   
   170  170  171 1   
   171  170  172 1   
   172  173  174 1   
   173  173  175 1   
@<TRIPOS>SUBSTRUCTURE
     1 MOL         1 TEMP              0 ****  ****    0 ROOT
