@<TRIPOS>MOLECULE
MOL
  189   185     1     0     0
SMALL
resp


@<TRIPOS>ATOM
      1 C1         -0.3270    0.7390    6.8420 c3        1 MOL     -0.313160
      2 C2         -0.5360    0.6460    5.2930 c         1 MOL      0.788931
      3 O1          0.3880    0.8050    4.5250 o         1 MOL     -0.644546
      4 H1         -1.2030    1.1980    7.2990 hc        1 MOL      0.075859
      5 H2         -0.1870   -0.2620    7.2510 hc        1 MOL      0.075859
      6 H3          0.5530    1.3450    7.0540 hc        1 MOL      0.075859
      7 N1         -1.7990    0.4910    4.8920 n         1 MOL     -0.680940
      8 C3         -2.1780    0.6640    3.3880 c3        1 MOL      0.339648
      9 C4         -2.3420    2.2050    3.1810 c         1 MOL      0.386361
     10 O2         -3.2650    2.8430    3.7590 o         1 MOL     -0.529104
     11 C5         -3.4560   -0.0770    3.2540 c3        1 MOL     -0.401432
     12 C6         -3.9800   -0.2040    1.8370 c         1 MOL      0.895839
     13 O3         -4.9400   -0.9900    1.6540 o         1 MOL     -0.700972
     14 O4         -3.4760    0.4560    0.8740 o         1 MOL     -0.700972
     15 H4         -2.5570    0.2360    5.5110 hn        1 MOL      0.346633
     16 H5         -1.4410    0.2290    2.7070 h1        1 MOL     -0.010462
     17 H6         -4.1780    0.4160    3.9000 hc        1 MOL      0.085663
     18 H7         -3.2500   -1.1320    3.4510 hc        1 MOL      0.085663
     19 N2         -1.5780    2.8390    2.2640 n         1 MOL     -0.065238
     20 C7         -1.5190    4.3080    2.1650 c3        1 MOL     -0.146352
     21 C8         -2.6650    4.9810    1.3630 c         1 MOL      0.520794
     22 O5         -2.9100    6.1970    1.3950 o         1 MOL     -0.561126
     23 C9         -0.1860    4.8210    1.4440 c3        1 MOL     -0.044309
     24 C10        -0.2090    4.6710   -0.1050 c3        1 MOL      0.065829
     25 C11         1.1190    5.0430   -0.7420 c3        1 MOL      0.019168
     26 C12         1.2710    5.0130   -2.2330 c3        1 MOL      0.178333
     27 N3          0.9910    6.2530   -2.9080 n4        1 MOL     -0.472849
     28 H8         -0.9500    2.2960    1.6960 hn        1 MOL      0.104812
     29 H9         -1.4320    4.7130    3.1740 h1        1 MOL      0.124848
     30 H10         0.6830    4.3500    1.8940 hc        1 MOL      0.041173
     31 H11        -0.1430    5.8870    1.6750 hc        1 MOL      0.041173
     32 H12        -0.9240    5.3730   -0.5300 hc        1 MOL     -0.006675
     33 H13        -0.5620    3.7130   -0.4800 hc        1 MOL     -0.006675
     34 H14         1.8380    4.2720   -0.4440 hc        1 MOL     -0.018820
     35 H15         1.4850    5.9950   -0.3580 hc        1 MOL     -0.018820
     36 H16         0.5610    4.2500   -2.5620 hx        1 MOL      0.023819
     37 H17         2.3060    4.7670   -2.4660 hx        1 MOL      0.023819
     38 H18         1.7960    6.8650   -2.9120 hn        1 MOL      0.349891
     39 H19         0.6150    6.1500   -3.8420 hn        1 MOL      0.349891
     40 H20         0.3020    6.7060   -2.3260 hn        1 MOL      0.349891
     41 N4         -3.3950    4.1340    0.5670 n         1 MOL     -0.117169
     42 C13        -4.4580    4.5390   -0.4260 c3        1 MOL     -0.054311
     43 C14        -5.7040    3.6370   -0.3590 c         1 MOL      0.530937
     44 O6         -6.6820    4.0590   -0.8910 o         1 MOL     -0.516775
     45 C15        -3.8730    4.6200   -1.8840 c3        1 MOL     -0.103253
     46 C16        -3.0250    3.4530   -2.2620 c         1 MOL      0.863351
     47 O7         -2.1660    3.6120   -3.2290 o         1 MOL     -0.749277
     48 O8         -3.1480    2.3230   -1.7040 o         1 MOL     -0.749277
     49 H21        -3.0890    3.1790    0.4870 hn        1 MOL     -0.255043
     50 H22        -4.8140    5.5440   -0.1770 h1        1 MOL      0.116796
     51 H23        -3.2540    5.4910   -2.0520 hc        1 MOL      0.024868
     52 H24        -4.6560    4.6340   -2.6360 hc        1 MOL      0.024868
     53 N5         -5.6870    2.5830    0.4800 n         1 MOL     -0.309451
     54 C17        -6.8700    1.8220    0.8100 c3        1 MOL     -0.100056
     55 C18        -7.4570    1.0680   -0.2860 c         1 MOL      0.461551
     56 O9         -8.6390    1.1860   -0.4890 o         1 MOL     -0.556559
     57 H25        -4.7560    2.3600    0.8170 hn        1 MOL      0.277790
     58 H26        -7.5670    2.5280    1.2540 h1        1 MOL      0.086606
     59 H27        -6.6650    1.0710    1.5790 h1        1 MOL      0.086606
     60 N6         -6.6310    0.3460   -0.9760 n         1 MOL     -0.117207
     61 C19        -7.0710   -0.5690   -1.9500 c3        1 MOL     -0.027338
     62 C20        -7.2190   -1.9820   -1.3870 c         1 MOL      0.402657
     63 O10        -7.6660   -2.8680   -2.0850 o         1 MOL     -0.514343
     64 C21        -6.2200   -0.4710   -3.2470 c3        1 MOL     -0.116978
     65 C22        -4.7080   -0.5460   -2.9430 c         1 MOL      0.661292
     66 O11        -4.2640   -1.2610   -1.9840 o         1 MOL     -0.697160
     67 O12        -3.8790    0.0540   -3.6450 o         1 MOL     -0.697160
     68 H28        -5.6400    0.4800   -0.7720 hn        1 MOL      0.126565
     69 H29        -8.1050   -0.2640   -2.1070 h1        1 MOL      0.094301
     70 H30        -6.5020    0.4190   -3.8130 hc        1 MOL      0.053658
     71 H31        -6.5810   -1.2780   -3.8830 hc        1 MOL      0.053658
     72 N7         -6.8160   -2.2140   -0.1510 n         1 MOL     -0.231821
     73 C23        -6.6580   -3.5340    0.5150 c3        1 MOL     -0.153862
     74 C24        -5.4170   -4.3250    0.1030 c         1 MOL      0.618155
     75 O13        -5.3920   -5.5100    0.3500 o         1 MOL     -0.608015
     76 H32        -6.5400   -1.3880    0.3610 hn        1 MOL      0.226623
     77 H33        -7.5550   -4.1280    0.3820 h1        1 MOL      0.093219
     78 H34        -6.5500   -3.2390    1.5590 h1        1 MOL      0.093219
     79 N8         -4.3710   -3.6980   -0.4040 n         1 MOL     -0.232371
     80 C25        -3.0720   -4.4110   -0.7460 c3        1 MOL     -0.131089
     81 C26        -1.8880   -3.5490   -0.2370 c         1 MOL      0.567818
     82 O14        -2.0200   -2.3190   -0.1300 o         1 MOL     -0.684712
     83 C27        -2.8800   -4.6340   -2.1990 c3        1 MOL      0.732805
     84 C28        -3.2920   -5.9950   -2.6230 c3        1 MOL     -0.452478
     85 O15        -3.4280   -3.6080   -3.0140 oh        1 MOL     -0.756377
     86 H35        -4.3980   -2.7350   -0.7010 hn        1 MOL      0.107243
     87 H36        -2.9960   -5.3730   -0.2500 h1        1 MOL      0.071598
     88 H37        -1.8230   -4.7010   -2.4700 h1        1 MOL     -0.127746
     89 H38        -3.1870   -2.7930   -2.5790 ho        1 MOL      0.600887
     90 H39        -2.9440   -6.0340   -3.6560 hc        1 MOL      0.098249
     91 H40        -2.8260   -6.7550   -2.0040 hc        1 MOL      0.098249
     92 H41        -4.3840   -6.0340   -2.6730 hc        1 MOL      0.098249
     93 N9         -0.6800   -4.1370   -0.0780 n         1 MOL     -0.541474
     94 C29         0.5200   -3.4620    0.4010 c3        1 MOL      0.079691
     95 C30         1.7870   -3.7290   -0.4010 c         1 MOL      0.437660
     96 O16         2.1370   -4.8980   -0.6130 o         1 MOL     -0.528483
     97 C31         0.7050   -3.8300    1.9410 c3        1 MOL     -0.038793
     98 C32        -0.2090   -2.9770    2.8960 c3        1 MOL      0.079553
     99 C33         2.1300   -3.6950    2.5290 c3        1 MOL     -0.326723
    100 C34        -0.5120   -3.6940    4.2120 c3        1 MOL     -0.160338
    101 H42        -0.7080   -5.1260   -0.2890 hn        1 MOL      0.294398
    102 H43         0.3430   -2.3910    0.2600 h1        1 MOL      0.137128
    103 H44         0.3730   -4.8600    2.0980 hc        1 MOL      0.063254
    104 H45        -1.1080   -2.6010    2.4040 hc        1 MOL      0.035067
    105 H46         0.3280   -2.0390    3.0510 hc        1 MOL      0.035067
    106 H47         2.8730   -4.2770    1.9970 hc        1 MOL      0.084380
    107 H48         2.4530   -2.6560    2.6250 hc        1 MOL      0.084380
    108 H49         2.1320   -4.0870    3.5490 hc        1 MOL      0.084380
    109 H50        -0.8740   -4.6910    3.9410 hc        1 MOL      0.037200
    110 H51         0.3490   -3.8600    4.8580 hc        1 MOL      0.037200
    111 H52        -1.2240   -3.1260    4.8080 hc        1 MOL      0.037200
    112 N10         2.3120   -2.6560   -1.0280 n         1 MOL     -0.101548
    113 C35         3.5040   -2.5450   -1.8740 c3        1 MOL     -0.237635
    114 C36         4.6900   -2.4480   -0.9200 c         1 MOL      0.432278
    115 O17         4.6090   -2.0270    0.2520 o         1 MOL     -0.305738
    116 C37         3.4270   -1.2680   -2.7260 c3        1 MOL      0.398542
    117 C38         2.3570   -1.3150   -3.7780 c3        1 MOL     -0.594533
    118 O18         3.0370   -0.2150   -1.8170 oh        1 MOL     -0.608160
    119 H53         1.9630   -1.7560   -0.7200 hn        1 MOL      0.074686
    120 H54         3.6370   -3.4420   -2.4750 h1        1 MOL      0.134097
    121 H55         4.4130   -0.9910   -3.0830 h1        1 MOL     -0.004912
    122 H56         2.1080   -0.3090   -1.6290 ho        1 MOL      0.363735
    123 H57         1.3280   -1.1240   -3.4720 hc        1 MOL      0.161642
    124 H58         2.6630   -0.5680   -4.5100 hc        1 MOL      0.161642
    125 H59         2.4710   -2.2780   -4.2690 hc        1 MOL      0.161642
    126 N11         5.9100   -2.7200   -1.4220 n         1 MOL     -0.429277
    127 C39         7.1840   -2.4350   -0.7120 c3        1 MOL      0.168264
    128 C40         7.1690   -1.1750    0.1520 c         1 MOL      0.092452
    129 O19         7.5700   -1.2130    1.2970 o         1 MOL     -0.422954
    130 C41         8.3170   -2.3580   -1.7980 c3        1 MOL      0.297053
    131 C42         9.7080   -2.5780   -1.2200 c3        1 MOL     -0.454828
    132 O20         8.0570   -3.1210   -2.9350 oh        1 MOL     -0.622821
    133 H60         6.0380   -3.1400   -2.3380 hn        1 MOL      0.284294
    134 H61         7.3230   -3.3050   -0.0690 h1        1 MOL      0.099244
    135 H62         8.2850   -1.3240   -2.1370 h1        1 MOL     -0.042953
    136 H63         8.9340   -3.2370   -3.3080 ho        1 MOL      0.421017
    137 H64         9.8570   -1.8320   -0.4320 hc        1 MOL      0.129199
    138 H65         9.7550   -3.5650   -0.7620 hc        1 MOL      0.129199
    139 H66        10.4960   -2.5360   -1.9720 hc        1 MOL      0.129199
    140 N12         6.7200    0.0190   -0.3490 n         1 MOL     -0.042294
    141 C43         6.6910    1.2770    0.3290 c3        1 MOL     -0.064823
    142 C44         5.6540    1.4080    1.4000 c         1 MOL      0.415835
    143 O21         5.7900    2.3470    2.1750 o         1 MOL     -0.541851
    144 C45         6.8430    2.4810   -0.5950 c3        1 MOL     -0.200945
    145 C46         8.2580    2.4700   -1.3130 c3        1 MOL      0.079373
    146 C47         8.2680    3.4100   -2.4840 c3        1 MOL      0.035606
    147 C48         9.6340    3.4870   -3.1490 c3        1 MOL     -0.017230
    148 N13        10.6740    4.0760   -2.2880 n4        1 MOL     -0.275191
    149 H67         6.3120   -0.0500   -1.2670 hn        1 MOL      0.224323
    150 H68         7.5940    1.2200    0.9460 h1        1 MOL      0.111511
    151 H69         6.7940    3.4880   -0.1660 hc        1 MOL      0.084563
    152 H70         6.1610    2.4010   -1.4440 hc        1 MOL      0.084563
    153 H71         8.4390    1.4870   -1.7510 hc        1 MOL     -0.013886
    154 H72         8.9650    2.7440   -0.5290 hc        1 MOL     -0.013886
    155 H73         7.8070    4.3670   -2.2470 hc        1 MOL      0.020962
    156 H74         7.6040    2.9720   -3.2260 hc        1 MOL      0.020962
    157 H75         9.5990    4.1210   -4.0430 hx        1 MOL      0.087197
    158 H76        10.0160    2.5710   -3.6100 hx        1 MOL      0.087197
    159 H77        11.5490    4.0860   -2.7880 hn        1 MOL      0.284486
    160 H78        10.4980    5.0420   -2.0300 hn        1 MOL      0.284486
    161 H79        11.0270    3.6440   -1.4490 hn        1 MOL      0.284486
    162 N14         4.6710    0.5480    1.4020 n         1 MOL     -0.154755
    163 C49         3.7170    0.4740    2.4960 c3        1 MOL     -0.098041
    164 C50         4.0670   -0.6450    3.5610 c         1 MOL      0.442317
    165 O22         3.6460   -0.6540    4.7080 o         1 MOL     -0.516955
    166 C51         2.3680    0.0820    1.9370 c3        1 MOL      0.234787
    167 C52         1.7800    1.1720    1.0260 c3        1 MOL     -0.037169
    168 C53         0.6130    0.7510    0.2660 c         1 MOL      0.875901
    169 O23         0.6890   -0.2020   -0.5190 o         1 MOL     -0.768581
    170 O24        -0.4550    1.2900    0.4130 o         1 MOL     -0.768581
    171 H80         4.5010   -0.0720    0.6110 hn        1 MOL      0.109885
    172 H81         3.5920    1.4530    2.9600 h1        1 MOL      0.111892
    173 H82         1.7770   -0.3220    2.7550 hc        1 MOL     -0.014603
    174 H83         2.5020   -0.7660    1.2600 hc        1 MOL     -0.014603
    175 H84         2.5440    1.4420    0.2910 hc        1 MOL     -0.018270
    176 H85         1.4890    2.0060    1.6690 hc        1 MOL     -0.018270
    177 N15         4.8760   -1.6580    3.2040 n         1 MOL     -0.193300
    178 C54         5.2790   -2.7770    3.9900 c3        1 MOL     -0.212256
    179 H86         6.3280   -2.9990    3.7930 h1        1 MOL      0.092576
    180 H87         5.1500   -2.5440    5.0470 h1        1 MOL      0.092576
    181 H88         4.6700   -3.6430    3.7310 h1        1 MOL      0.092576
    182 H89         5.1320   -1.6660    2.2350 hn        1 MOL      0.186112
    183 Ca1        -2.1560    0.1250   -1.3230 Ca        1 MOL      1.815376
    184 O25        -1.4620   -1.7000   -3.4090 oh        1 MOL     -0.898993
    185 H90        -1.5450   -1.0420   -4.1020 ho        1 MOL      0.410266
    186 H91        -1.1730   -2.4880   -3.8680 ho        1 MOL      0.410266
    187 O26        -0.5490    1.5810   -2.8330 oh        1 MOL     -0.898993
    188 H92        -0.9560    2.4300   -3.0470 ho        1 MOL      0.410266
    189 H93         0.2080    1.5320   -3.4100 ho        1 MOL      0.410266
@<TRIPOS>BOND
     1    1    2 1   
     2    1    4 1   
     3    1    5 1   
     4    1    6 1   
     5    2    3 2   
     6    2    7 1   
     7    7    8 1   
     8    7   15 1   
     9    8    9 1   
    10    8   11 1   
    11    8   16 1   
    12    9   10 2   
    13    9   19 1   
    14   11   12 1   
    15   11   17 1   
    16   11   18 1   
    17   12   13 1   
    18   12   14 1   
    19   19   20 1   
    20   19   28 1   
    21   20   21 1   
    22   20   23 1   
    23   20   29 1   
    24   21   22 2   
    25   21   41 1   
    26   23   24 1   
    27   23   30 1   
    28   23   31 1   
    29   24   25 1   
    30   24   32 1   
    31   24   33 1   
    32   25   26 1   
    33   25   34 1   
    34   25   35 1   
    35   26   27 1   
    36   26   36 1   
    37   26   37 1   
    38   27   38 1   
    39   27   39 1   
    40   27   40 1   
    41   41   42 1   
    42   41   49 1   
    43   42   43 1   
    44   42   45 1   
    45   42   50 1   
    46   43   44 2   
    47   43   53 1   
    48   45   46 1   
    49   45   51 1   
    50   45   52 1   
    51   46   47 1   
    52   46   48 1   
    53   53   54 1   
    54   53   57 1   
    55   54   55 1   
    56   54   58 1   
    57   54   59 1   
    58   55   56 2   
    59   55   60 1   
    60   60   61 1   
    61   60   68 1   
    62   61   62 1   
    63   61   64 1   
    64   61   69 1   
    65   62   63 2   
    66   62   72 1   
    67   64   65 1   
    68   64   70 1   
    69   64   71 1   
    70   65   66 1   
    71   65   67 1   
    72   72   73 1   
    73   72   76 1   
    74   73   74 1   
    75   73   77 1   
    76   73   78 1   
    77   74   75 2   
    78   74   79 1   
    79   79   80 1   
    80   79   86 1   
    81   80   81 1   
    82   80   83 1   
    83   80   87 1   
    84   81   82 2   
    85   81   93 1   
    86   83   84 1   
    87   83   85 1   
    88   83   88 1   
    89   84   90 1   
    90   84   91 1   
    91   84   92 1   
    92   85   89 1   
    93   93   94 1   
    94   93  101 1   
    95   94   95 1   
    96   94   97 1   
    97   94  102 1   
    98   95   96 2   
    99   95  112 1   
   100   97   98 1   
   101   97   99 1   
   102   97  103 1   
   103   98  100 1   
   104   98  104 1   
   105   98  105 1   
   106   99  106 1   
   107   99  107 1   
   108   99  108 1   
   109  100  109 1   
   110  100  110 1   
   111  100  111 1   
   112  112  113 1   
   113  112  119 1   
   114  113  114 1   
   115  113  116 1   
   116  113  120 1   
   117  114  115 2   
   118  114  126 1   
   119  116  117 1   
   120  116  118 1   
   121  116  121 1   
   122  117  123 1   
   123  117  124 1   
   124  117  125 1   
   125  118  122 1   
   126  126  127 1   
   127  126  133 1   
   128  127  128 1   
   129  127  130 1   
   130  127  134 1   
   131  128  129 2   
   132  128  140 1   
   133  130  131 1   
   134  130  132 1   
   135  130  135 1   
   136  131  137 1   
   137  131  138 1   
   138  131  139 1   
   139  132  136 1   
   140  140  141 1   
   141  140  149 1   
   142  141  142 1   
   143  141  144 1   
   144  141  150 1   
   145  142  143 2   
   146  142  162 1   
   147  144  145 1   
   148  144  151 1   
   149  144  152 1   
   150  145  146 1   
   151  145  153 1   
   152  145  154 1   
   153  146  147 1   
   154  146  155 1   
   155  146  156 1   
   156  147  148 1   
   157  147  157 1   
   158  147  158 1   
   159  148  159 1   
   160  148  160 1   
   161  148  161 1   
   162  162  163 1   
   163  162  171 1   
   164  163  164 1   
   165  163  166 1   
   166  163  172 1   
   167  164  165 2   
   168  164  177 1   
   169  166  167 1   
   170  166  173 1   
   171  166  174 1   
   172  167  168 1   
   173  167  175 1   
   174  167  176 1   
   175  168  169 1   
   176  168  170 1   
   177  177  178 1   
   178  177  182 1   
   179  178  179 1   
   180  178  180 1   
   181  178  181 1   
   182  184  185 1   
   183  184  186 1   
   184  187  188 1   
   185  187  189 1   
@<TRIPOS>SUBSTRUCTURE
     1 MOL         1 TEMP              0 ****  ****    0 ROOT
