@<TRIPOS>MOLECULE
MOL
  189   185     1     0     0
SMALL
resp


@<TRIPOS>ATOM
      1 C1          0.8790   -3.3110    6.2530 c3        1 MOL     -0.358935
      2 C2          1.2450   -2.9990    4.7640 c         1 MOL      0.713419
      3 O1          1.1680   -1.8670    4.2720 o         1 MOL     -0.567015
      4 H1         -0.0900   -2.8720    6.4890 hc        1 MOL      0.098878
      5 H2          0.8330   -4.3900    6.3990 hc        1 MOL      0.098878
      6 H3          1.6390   -2.8870    6.9100 hc        1 MOL      0.098878
      7 N1          1.7250   -3.9740    3.9440 n         1 MOL     -0.579371
      8 C3          2.3770   -3.6990    2.6240 c3        1 MOL      0.249554
      9 C4          2.4510   -4.8230    1.6210 c         1 MOL      0.390322
     10 O2          2.7920   -5.9480    2.0200 o         1 MOL     -0.572142
     11 C5          3.8570   -3.2720    2.7630 c3        1 MOL     -0.254806
     12 C6          4.5710   -2.7650    1.5270 c         1 MOL      0.784850
     13 O3          5.8210   -2.6580    1.5510 o         1 MOL     -0.709348
     14 O4          4.0230   -2.2560    0.5110 o         1 MOL     -0.709348
     15 H4          1.8040   -4.9350    4.2420 hn        1 MOL      0.305005
     16 H5          1.8360   -2.8690    2.1710 h1        1 MOL      0.006663
     17 H6          4.3740   -4.1620    3.1320 hc        1 MOL      0.043318
     18 H7          3.9880   -2.5080    3.5360 hc        1 MOL      0.043318
     19 N2          2.2370   -4.5930    0.3340 n         1 MOL     -0.007640
     20 C7          2.4450   -5.5110   -0.7740 c3        1 MOL      0.021436
     21 C8          3.3160   -5.0830   -2.0140 c         1 MOL      0.428220
     22 O5          3.7520   -5.9220   -2.8160 o         1 MOL     -0.571559
     23 C9          1.1030   -6.0270   -1.3180 c3        1 MOL      0.038667
     24 C10         0.3180   -4.9550   -2.0900 c3        1 MOL      0.208371
     25 C11         0.1840   -6.6410   -0.2390 c3        1 MOL     -0.206945
     26 C12        -1.0090   -5.4670   -2.6920 c3        1 MOL     -0.317930
     27 H8          2.0050   -3.6650   -0.0080 hn        1 MOL     -0.096594
     28 H9          3.0580   -6.3400   -0.4160 h1        1 MOL      0.050976
     29 H10         1.4470   -6.7770   -2.0350 hc        1 MOL     -0.009697
     30 H11         0.8980   -4.5660   -2.9340 hc        1 MOL     -0.010002
     31 H12         0.2160   -4.0580   -1.4740 hc        1 MOL     -0.010002
     32 H13         0.7290   -7.2880    0.4560 hc        1 MOL      0.041599
     33 H14        -0.3260   -5.8830    0.3510 hc        1 MOL      0.041599
     34 H15        -0.6160   -7.2470   -0.6420 hc        1 MOL      0.041599
     35 H16        -1.3070   -4.6880   -3.3930 hc        1 MOL      0.067765
     36 H17        -0.8580   -6.3850   -3.2540 hc        1 MOL      0.067765
     37 H18        -1.8300   -5.5380   -1.9840 hc        1 MOL      0.067765
     38 N3          3.6050   -3.8060   -2.0970 n         1 MOL     -0.225807
     39 C13         4.1050   -3.2370   -3.3550 c3        1 MOL      0.022849
     40 C14         5.3750   -2.3050   -3.0510 c         1 MOL      0.352497
     41 O6          5.8320   -1.6920   -4.0270 o         1 MOL     -0.520450
     42 C15         3.0890   -2.3510   -4.1400 c3        1 MOL     -0.189616
     43 C16         2.6610   -1.0540   -3.5230 c         1 MOL      0.701766
     44 O7          3.1400   -0.7430   -2.4060 o         1 MOL     -0.661072
     45 O8          1.7930   -0.3730   -4.1770 o         1 MOL     -0.661072
     46 H19         3.4800   -3.2560   -1.2630 hn        1 MOL      0.168865
     47 H20         4.4110   -4.0890   -3.9540 h1        1 MOL      0.102826
     48 H21         2.2580   -3.0320   -4.3080 hc        1 MOL      0.055284
     49 H22         3.4940   -2.1640   -5.1390 hc        1 MOL      0.055284
     50 N4          5.9490   -2.1800   -1.8390 n         1 MOL     -0.256331
     51 C17         7.2340   -1.5980   -1.5550 c3        1 MOL     -0.116595
     52 C18         7.4390   -0.1080   -1.9260 c         1 MOL      0.452117
     53 O9          8.5610    0.4640   -1.9050 o         1 MOL     -0.620567
     54 H23         5.4850   -2.6830   -1.0960 hn        1 MOL      0.211978
     55 H24         8.0320   -2.1760   -2.0120 h1        1 MOL      0.094716
     56 H25         7.4450   -1.6020   -0.4810 h1        1 MOL      0.094716
     57 N5          6.4080    0.6450   -2.2880 n         1 MOL     -0.200611
     58 C19         6.4090    2.1890   -2.5750 c3        1 MOL     -0.137930
     59 C20         6.5060    3.2060   -1.4510 c         1 MOL      0.485600
     60 O10         6.6290    4.3640   -1.7950 o         1 MOL     -0.532857
     61 C21         5.1530    2.6210   -3.3630 c3        1 MOL     -0.164359
     62 C22         3.7910    2.4080   -2.6560 c         1 MOL      0.775401
     63 O11         3.7290    1.9930   -1.4660 o         1 MOL     -0.721183
     64 O12         2.7700    2.7150   -3.2740 o         1 MOL     -0.721183
     65 H26         5.5470    0.2040   -2.5510 hn        1 MOL      0.241957
     66 H27         7.2240    2.4170   -3.2530 h1        1 MOL      0.126826
     67 H28         5.1110    1.9690   -4.2290 hc        1 MOL      0.056045
     68 H29         5.2580    3.6330   -3.7630 hc        1 MOL      0.056045
     69 N6          6.5260    2.7900   -0.1770 n         1 MOL     -0.190012
     70 C23         6.8360    3.7100    0.9160 c3        1 MOL     -0.171554
     71 C24         5.5780    4.3850    1.6190 c         1 MOL      0.529663
     72 O13         5.8090    5.3760    2.3930 o         1 MOL     -0.582255
     73 H30         6.2200    1.8460   -0.0030 hn        1 MOL      0.216318
     74 H31         7.5040    4.5280    0.6230 h1        1 MOL      0.080597
     75 H32         7.2910    3.1020    1.6920 h1        1 MOL      0.080597
     76 N7          4.3770    3.9260    1.3560 n         1 MOL     -0.237560
     77 C25         3.1210    4.3600    1.9390 c3        1 MOL     -0.091998
     78 C26         2.0620    3.3100    1.9430 c         1 MOL      0.369315
     79 O14         2.0500    2.3980    1.0560 o         1 MOL     -0.488147
     80 C27         2.5630    5.6090    1.2300 c3        1 MOL     -0.143685
     81 C28         2.2940    5.3090   -0.2960 c3        1 MOL      0.065875
     82 C29         1.9380    6.5250   -1.1180 c         1 MOL      0.641492
     83 N8          1.4220    6.3750   -2.3370 n         1 MOL     -0.829781
     84 O15         2.0880    7.6870   -0.6650 o         1 MOL     -0.598705
     85 H33         4.2190    3.2420    0.6320 hn        1 MOL      0.193516
     86 H34         3.4070    4.6660    2.9510 h1        1 MOL      0.056602
     87 H35         3.2140    6.4770    1.1760 hc        1 MOL      0.068476
     88 H36         1.6200    5.9600    1.6530 hc        1 MOL      0.068476
     89 H37         1.5070    4.5780   -0.4250 hc        1 MOL      0.008477
     90 H38         3.1610    4.8740   -0.8180 hc        1 MOL      0.008477
     91 H39         1.3230    5.4670   -2.7590 hn        1 MOL      0.370256
     92 H40         1.2800    7.1450   -2.9770 hn        1 MOL      0.370256
     93 N9          1.1560    3.4210    2.8890 n         1 MOL     -0.229367
     94 C30        -0.0170    2.4110    3.0840 c3        1 MOL     -0.273105
     95 C31        -1.1980    2.8140    2.2620 c         1 MOL      0.534369
     96 O16        -1.8320    3.8660    2.4960 o         1 MOL     -0.584025
     97 C32        -0.3620    2.3840    4.5560 c3        1 MOL      0.342967
     98 C33        -1.3680    1.3240    4.8020 c3        1 MOL     -0.294314
     99 C34         0.8510    2.1430    5.4280 c3        1 MOL     -0.294314
    100 H41         1.2930    4.1880    3.5290 hn        1 MOL      0.264983
    101 H42         0.2900    1.4390    2.7150 h1        1 MOL      0.173357
    102 H43        -0.8620    3.3000    4.8790 hc        1 MOL     -0.029034
    103 H44        -1.7410    1.5820    5.7990 hc        1 MOL      0.056939
    104 H45        -2.2550    1.3970    4.1730 hc        1 MOL      0.056939
    105 H46        -1.0190    0.2950    4.7950 hc        1 MOL      0.056939
    106 H47         1.5070    1.3350    5.0930 hc        1 MOL      0.056939
    107 H48         1.4210    3.0730    5.4910 hc        1 MOL      0.056939
    108 H49         0.4930    1.9000    6.4260 hc        1 MOL      0.056939
    109 N10        -1.4990    2.1930    1.0790 n         1 MOL     -0.135318
    110 C35        -2.7320    2.4120    0.3450 c3        1 MOL      0.065963
    111 C36        -3.9450    1.8590    1.0800 c         1 MOL      0.212298
    112 O17        -3.8310    1.0150    1.9450 o         1 MOL     -0.275724
    113 C37        -2.5560    1.7670   -1.0320 c3        1 MOL     -0.472993
    114 C38        -3.6700    2.0340   -1.9800 c         1 MOL      0.697249
    115 N11        -4.2110    3.1880   -2.1090 n         1 MOL     -0.743163
    116 O18        -4.3150    1.0470   -2.3990 o         1 MOL     -0.561638
    117 H50        -0.9120    1.4520    0.7090 hn        1 MOL      0.150448
    118 H51        -2.9250    3.4740    0.1490 h1        1 MOL      0.037256
    119 H52        -2.3800    0.6900   -0.9760 hc        1 MOL      0.178810
    120 H53        -1.6810    2.2310   -1.4900 hc        1 MOL      0.178810
    121 H54        -3.6730    3.9780   -1.7940 hn        1 MOL      0.344684
    122 H55        -4.9320    3.2930   -2.8160 hn        1 MOL      0.344684
    123 N12        -5.1450    2.2520    0.6470 n         1 MOL     -0.099630
    124 C39        -6.4340    1.8730    1.2800 c3        1 MOL     -0.125796
    125 C40        -6.7020    0.3520    1.2060 c         1 MOL      0.419050
    126 O19        -7.0710   -0.2170    2.2090 o         1 MOL     -0.569539
    127 C41        -7.6040    2.7420    0.6800 c3        1 MOL      0.037854
    128 C42        -8.1540    2.5530   -0.6860 ca        1 MOL      0.033032
    129 C43        -9.0020    1.4380   -0.8880 ca        1 MOL     -0.244832
    130 C44        -7.8120    3.4340   -1.7370 ca        1 MOL     -0.244832
    131 C45        -9.5690    1.1930   -2.1800 ca        1 MOL     -0.189256
    132 C46        -8.3920    3.2660   -3.0060 ca        1 MOL     -0.189256
    133 C47        -9.3180    2.1300   -3.2100 ca        1 MOL      0.307611
    134 O20        -9.8310    1.9950   -4.4480 oh        1 MOL     -0.545528
    135 H56        -5.1910    3.0390    0.0250 hn        1 MOL      0.137608
    136 H57        -6.3090    2.1420    2.3290 h1        1 MOL      0.091410
    137 H58        -7.3690    3.7880    0.8780 hc        1 MOL      0.018799
    138 H59        -8.4300    2.7710    1.3930 hc        1 MOL      0.018799
    139 H60        -9.2580    0.7500   -0.1020 ha        1 MOL      0.153050
    140 H61        -7.0640    4.1790   -1.5560 ha        1 MOL      0.153050
    141 H62       -10.3230    0.4330   -2.3320 ha        1 MOL      0.142092
    142 H63        -8.1230    3.8850   -3.8450 ha        1 MOL      0.142092
    143 H64        -9.9450    1.0720   -4.6780 ho        1 MOL      0.420361
    144 N13        -6.3040   -0.2800    0.1170 n         1 MOL      0.017116
    145 C48        -6.4760   -1.7820   -0.0950 c3        1 MOL     -0.308954
    146 C49        -5.4050   -2.5650    0.7220 c         1 MOL      0.387282
    147 O21        -5.6160   -3.7160    0.9800 o         1 MOL     -0.489847
    148 C50        -6.3940   -2.0900   -1.5890 c3        1 MOL      0.046920
    149 C51        -7.5330   -1.4420   -2.3720 c3        1 MOL     -0.291633
    150 C52        -7.7070   -2.1600   -3.7040 c         1 MOL      0.701656
    151 O22        -8.2620   -3.2680   -3.7330 o         1 MOL     -0.735601
    152 O23        -7.2060   -1.7240   -4.7740 o         1 MOL     -0.735601
    153 H65        -6.1230    0.3430   -0.6520 hn        1 MOL      0.241134
    154 H66        -7.4200   -2.1500    0.3090 h1        1 MOL      0.160627
    155 H67        -6.3740   -3.1710   -1.6380 hc        1 MOL      0.075970
    156 H68        -5.4930   -1.6780   -2.0540 hc        1 MOL      0.075970
    157 H69        -7.4020   -0.3860   -2.5750 hc        1 MOL      0.042478
    158 H70        -8.4350   -1.5190   -1.7700 hc        1 MOL      0.042478
    159 N14        -4.2800   -1.9200    1.0810 n         1 MOL     -0.132584
    160 C53        -3.2480   -2.4020    1.9810 c3        1 MOL     -0.014088
    161 C54        -3.6460   -2.1160    3.4710 c         1 MOL      0.455932
    162 O24        -3.4950   -3.0030    4.2610 o         1 MOL     -0.587024
    163 C55        -1.8380   -1.7800    1.7720 c3        1 MOL      0.013127
    164 C56        -1.2840   -2.0550    0.4080 c3        1 MOL     -0.176396
    165 C57         0.1230   -1.4570    0.3000 c         1 MOL      0.729040
    166 O25         1.0090   -1.9700   -0.4510 o         1 MOL     -0.645348
    167 O26         0.2950   -0.3130    0.7680 o         1 MOL     -0.645348
    168 H71        -4.1860   -0.9750    0.7360 hn        1 MOL      0.060536
    169 H72        -3.1400   -3.4820    1.9360 h1        1 MOL      0.078729
    170 H73        -1.1530   -2.0870    2.5490 hc        1 MOL     -0.006371
    171 H74        -2.0160   -0.6980    1.7470 hc        1 MOL     -0.006371
    172 H75        -1.9860   -1.6300   -0.3030 hc        1 MOL      0.053495
    173 H76        -1.2550   -3.1240    0.1860 hc        1 MOL      0.053495
    174 N15        -4.3310   -1.0330    3.8180 n         1 MOL     -0.042952
    175 C58        -4.8360   -0.6710    5.1910 c3        1 MOL     -0.236280
    176 H77        -4.4120   -1.3540    5.9260 h1        1 MOL      0.084995
    177 H78        -4.5380    0.3500    5.4300 h1        1 MOL      0.084995
    178 H79        -5.9230   -0.7460    5.2100 h1        1 MOL      0.084995
    179 H80        -4.4650   -0.3740    3.0590 hn        1 MOL      0.105923
    180 Ca1         2.7290    0.0200   -0.0350 Ca        1 MOL      1.704261
    181 O27         2.8350   -0.2500    2.6330 oh        1 MOL     -0.871431
    182 H81         2.3390   -0.8830    3.1510 ho        1 MOL      0.413255
    183 H82         3.3570    0.2210    3.2840 ho        1 MOL      0.413255
    184 O28         0.7760    1.1150   -1.9100 oh        1 MOL     -0.871431
    185 H83         1.2740    0.4830   -2.4310 ho        1 MOL      0.413255
    186 H84         1.1800    1.9620   -2.1060 ho        1 MOL      0.413255
    187 O29         5.3390    0.1170    0.7190 oh        1 MOL     -0.871431
    188 H85         5.7260   -0.7610    0.6910 ho        1 MOL      0.413255
    189 H86         5.5410    0.4390    1.5960 ho        1 MOL      0.413255
@<TRIPOS>BOND
     1    1    2 1   
     2    1    4 1   
     3    1    5 1   
     4    1    6 1   
     5    2    3 2   
     6    2    7 1   
     7    7    8 1   
     8    7   15 1   
     9    8    9 1   
    10    8   11 1   
    11    8   16 1   
    12    9   10 2   
    13    9   19 1   
    14   11   12 1   
    15   11   17 1   
    16   11   18 1   
    17   12   13 1   
    18   12   14 1   
    19   19   20 1   
    20   19   27 1   
    21   20   21 1   
    22   20   23 1   
    23   20   28 1   
    24   21   22 2   
    25   21   38 1   
    26   23   24 1   
    27   23   25 1   
    28   23   29 1   
    29   24   26 1   
    30   24   30 1   
    31   24   31 1   
    32   25   32 1   
    33   25   33 1   
    34   25   34 1   
    35   26   35 1   
    36   26   36 1   
    37   26   37 1   
    38   38   39 1   
    39   38   46 1   
    40   39   40 1   
    41   39   42 1   
    42   39   47 1   
    43   40   41 2   
    44   40   50 1   
    45   42   43 1   
    46   42   48 1   
    47   42   49 1   
    48   43   44 1   
    49   43   45 1   
    50   50   51 1   
    51   50   54 1   
    52   51   52 1   
    53   51   55 1   
    54   51   56 1   
    55   52   53 2   
    56   52   57 1   
    57   57   58 1   
    58   57   65 1   
    59   58   59 1   
    60   58   61 1   
    61   58   66 1   
    62   59   60 2   
    63   59   69 1   
    64   61   62 1   
    65   61   67 1   
    66   61   68 1   
    67   62   63 1   
    68   62   64 1   
    69   69   70 1   
    70   69   73 1   
    71   70   71 1   
    72   70   74 1   
    73   70   75 1   
    74   71   72 2   
    75   71   76 1   
    76   76   77 1   
    77   76   85 1   
    78   77   78 1   
    79   77   80 1   
    80   77   86 1   
    81   78   79 2   
    82   78   93 1   
    83   80   81 1   
    84   80   87 1   
    85   80   88 1   
    86   81   82 1   
    87   81   89 1   
    88   81   90 1   
    89   82   83 1   
    90   82   84 2   
    91   83   91 1   
    92   83   92 1   
    93   93   94 1   
    94   93  100 1   
    95   94   95 1   
    96   94   97 1   
    97   94  101 1   
    98   95   96 2   
    99   95  109 1   
   100   97   98 1   
   101   97   99 1   
   102   97  102 1   
   103   98  103 1   
   104   98  104 1   
   105   98  105 1   
   106   99  106 1   
   107   99  107 1   
   108   99  108 1   
   109  109  110 1   
   110  109  117 1   
   111  110  111 1   
   112  110  113 1   
   113  110  118 1   
   114  111  112 2   
   115  111  123 1   
   116  113  114 1   
   117  113  119 1   
   118  113  120 1   
   119  114  115 1   
   120  114  116 2   
   121  115  121 1   
   122  115  122 1   
   123  123  124 1   
   124  123  135 1   
   125  124  125 1   
   126  124  127 1   
   127  124  136 1   
   128  125  126 2   
   129  125  144 1   
   130  127  128 1   
   131  127  137 1   
   132  127  138 1   
   133  128  129 ar  
   134  128  130 ar  
   135  129  131 ar  
   136  129  139 1   
   137  130  132 ar  
   138  130  140 1   
   139  131  133 ar  
   140  131  141 1   
   141  132  133 ar  
   142  132  142 1   
   143  133  134 1   
   144  134  143 1   
   145  144  145 1   
   146  144  153 1   
   147  145  146 1   
   148  145  148 1   
   149  145  154 1   
   150  146  147 2   
   151  146  159 1   
   152  148  149 1   
   153  148  155 1   
   154  148  156 1   
   155  149  150 1   
   156  149  157 1   
   157  149  158 1   
   158  150  151 1   
   159  150  152 1   
   160  159  160 1   
   161  159  168 1   
   162  160  161 1   
   163  160  163 1   
   164  160  169 1   
   165  161  162 2   
   166  161  174 1   
   167  163  164 1   
   168  163  170 1   
   169  163  171 1   
   170  164  165 1   
   171  164  172 1   
   172  164  173 1   
   173  165  166 1   
   174  165  167 1   
   175  174  175 1   
   176  174  179 1   
   177  175  176 1   
   178  175  177 1   
   179  175  178 1   
   180  181  182 1   
   181  181  183 1   
   182  184  185 1   
   183  184  186 1   
   184  187  188 1   
   185  187  189 1   
@<TRIPOS>SUBSTRUCTURE
     1 MOL         1 TEMP              0 ****  ****    0 ROOT
