@<TRIPOS>MOLECULE
MOL
  176   174     1     0     0
SMALL
resp


@<TRIPOS>ATOM
      1 C1          0.6020    3.1730    6.3510 c3        1 MOL     -0.256918
      2 C2          0.5120    2.6350    4.8860 c         1 MOL      0.692466
      3 O1          1.5370    2.5550    4.2430 o         1 MOL     -0.542602
      4 H1          1.4430    3.8620    6.4330 hc        1 MOL      0.066568
      5 H2         -0.3210    3.6950    6.6050 hc        1 MOL      0.066568
      6 H3          0.7500    2.3380    7.0360 hc        1 MOL      0.066568
      7 N1         -0.7600    2.4090    4.3810 n         1 MOL     -0.609046
      8 C3         -1.1150    2.1540    2.9720 c3        1 MOL      0.114517
      9 C4         -1.1940    3.5200    2.2290 c         1 MOL      0.687160
     10 O2         -1.8200    4.4610    2.7970 o         1 MOL     -0.591212
     11 C5         -2.4220    1.3280    2.9790 c3        1 MOL     -0.444430
     12 C6         -2.8410    0.9060    1.6140 c         1 MOL      1.030725
     13 O3         -3.1180   -0.3060    1.3210 o         1 MOL     -0.787341
     14 O4         -2.8740    1.7580    0.6780 o         1 MOL     -0.787341
     15 H4         -1.4930    2.6490    5.0330 hn        1 MOL      0.325766
     16 H5         -0.2600    1.6200    2.5720 h1        1 MOL     -0.031727
     17 H6         -3.2740    1.8820    3.3880 hc        1 MOL      0.117682
     18 H7         -2.2240    0.4400    3.5710 hc        1 MOL      0.117682
     19 N2         -0.5720    3.6470    1.0440 n         1 MOL     -0.496086
     20 C7         -0.3850    4.8770    0.2190 c3        1 MOL     -0.200702
     21 C8         -1.6190    5.1820   -0.5760 c         1 MOL      0.622409
     22 O5         -1.7350    6.2650   -1.1450 o         1 MOL     -0.583136
     23 C9          0.8310    4.6090   -0.6650 c3        1 MOL      0.164461
     24 C10         1.4660    5.9130   -1.1650 c3        1 MOL     -0.033275
     25 C11         2.7200    5.6370   -2.0160 c3        1 MOL     -0.100172
     26 C12         3.0480    6.8050   -2.9490 c3        1 MOL      0.053050
     27 N3          4.2300    6.6430   -3.8800 n4        1 MOL     -0.344677
     28 H8         -0.1880    2.7950    0.6500 hn        1 MOL      0.342300
     29 H9         -0.1270    5.7290    0.8520 h1        1 MOL      0.134600
     30 H10         0.5150    3.9970   -1.5210 hc        1 MOL      0.043955
     31 H11         1.6030    4.1450   -0.0700 hc        1 MOL      0.043955
     32 H12         1.7450    6.6510   -0.4130 hc        1 MOL      0.019430
     33 H13         0.7650    6.4570   -1.8070 hc        1 MOL      0.019430
     34 H14         2.6080    4.7420   -2.6190 hc        1 MOL      0.057048
     35 H15         3.4730    5.4440   -1.2470 hc        1 MOL      0.057048
     36 H16         3.2340    7.6870   -2.3220 hx        1 MOL      0.085082
     37 H17         2.1850    7.0410   -3.5820 hx        1 MOL      0.085082
     38 H18         4.0340    6.0620   -4.6900 hn        1 MOL      0.322067
     39 H19         4.7840    7.4550   -4.0890 hn        1 MOL      0.322067
     40 H20         4.8650    6.1310   -3.2750 hn        1 MOL      0.322067
     41 N4         -2.6910    4.3630   -0.6720 n         1 MOL     -0.379069
     42 C13        -3.8800    4.4710   -1.5320 c3        1 MOL      0.032485
     43 C14        -5.1820    3.9370   -0.8860 c         1 MOL      0.434201
     44 O6         -6.2370    4.0670   -1.4730 o         1 MOL     -0.524474
     45 C15        -3.5890    3.7310   -2.8330 c3        1 MOL     -0.160637
     46 C16        -3.0340    2.2820   -2.5850 c         1 MOL      0.707902
     47 O7         -3.8450    1.3660   -2.2820 o         1 MOL     -0.758196
     48 O8         -1.7420    2.0540   -2.6530 o         1 MOL     -0.758196
     49 H21        -2.5900    3.4730   -0.2110 hn        1 MOL      0.235917
     50 H22        -4.1510    5.4830   -1.7990 h1        1 MOL      0.108102
     51 H23        -2.8850    4.2950   -3.4420 hc        1 MOL      0.053838
     52 H24        -4.4900    3.6390   -3.4510 hc        1 MOL      0.053838
     53 N5         -5.1640    3.1440    0.2140 n         1 MOL     -0.282827
     54 C17        -6.3820    2.6740    0.8740 c3        1 MOL     -0.059321
     55 C18        -7.1280    1.4580    0.2920 c         1 MOL      0.454794
     56 O9         -8.2490    1.1470    0.7760 o         1 MOL     -0.558162
     57 H25        -4.2530    2.9370    0.6040 hn        1 MOL      0.181065
     58 H26        -7.1820    3.3910    1.0180 h1        1 MOL      0.088661
     59 H27        -6.1230    2.4240    1.9050 h1        1 MOL      0.088661
     60 N6         -6.5890    0.6600   -0.6070 n         1 MOL     -0.337249
     61 C19        -7.0970   -0.7550   -0.6920 c3        1 MOL      0.158309
     62 C20        -6.7980   -1.6610    0.4670 c         1 MOL      0.458492
     63 O10        -7.6810   -2.4990    0.6960 o         1 MOL     -0.567497
     64 C21        -6.5970   -1.4800   -1.9880 c3        1 MOL     -0.553981
     65 C22        -5.0900   -1.5910   -2.1700 c         1 MOL      0.891595
     66 N7         -4.5060   -2.1030   -3.2400 n         1 MOL     -0.787267
     67 O11        -4.3430   -1.2800   -1.2300 o         1 MOL     -0.643726
     68 H28        -5.7270    0.8970   -1.0830 hn        1 MOL      0.308518
     69 H29        -8.1770   -0.6380   -0.6470 h1        1 MOL      0.107441
     70 H30        -6.9060   -0.8900   -2.8530 hc        1 MOL      0.152834
     71 H31        -7.0490   -2.4740   -1.9180 hc        1 MOL      0.152834
     72 H32        -5.1380   -2.6170   -3.8400 hn        1 MOL      0.356085
     73 H33        -3.5060   -2.2660   -3.2470 hn        1 MOL      0.356085
     74 N8         -5.7670   -1.5390    1.2730 n         1 MOL     -0.150875
     75 C23        -5.4910   -2.3760    2.4360 c3        1 MOL     -0.052082
     76 C24        -4.4170   -3.4150    2.3840 c         1 MOL      0.454133
     77 O12        -4.4950   -4.3350    3.1950 o         1 MOL     -0.564299
     78 H34        -5.0530   -0.8510    1.0520 hn        1 MOL      0.104557
     79 H35        -6.4100   -2.8530    2.7870 h1        1 MOL      0.073934
     80 H36        -5.1830   -1.7030    3.2400 h1        1 MOL      0.073934
     81 N9         -3.5240   -3.3380    1.4440 n         1 MOL     -0.008403
     82 C25        -2.2190   -4.0530    1.5700 c3        1 MOL      0.033645
     83 C26        -1.0430   -3.2330    1.1240 c         1 MOL      0.401496
     84 O13        -1.1710   -2.2700    0.3100 o         1 MOL     -0.543861
     85 C27        -2.2010   -5.3590    0.8340 c3        1 MOL     -0.281718
     86 C28        -2.2890   -5.2180   -0.6460 ca        1 MOL      0.177534
     87 C29        -1.1680   -5.2810   -1.5430 ca        1 MOL     -0.235209
     88 C30        -3.5650   -5.0470   -1.2180 ca        1 MOL     -0.235209
     89 C31        -1.2940   -5.0740   -2.9040 ca        1 MOL     -0.225244
     90 C32        -3.6860   -4.9570   -2.6250 ca        1 MOL     -0.225244
     91 C33        -2.5700   -5.0050   -3.4730 ca        1 MOL      0.354760
     92 O14        -2.6970   -5.1480   -4.8130 oh        1 MOL     -0.505362
     93 H37        -3.6030   -2.5410    0.8280 hn        1 MOL      0.040944
     94 H38        -2.1510   -4.3010    2.6360 h1        1 MOL      0.066505
     95 H39        -3.0740   -5.9720    1.0810 hc        1 MOL      0.101226
     96 H40        -1.2050   -5.7560    1.0250 hc        1 MOL      0.101226
     97 H41        -0.1980   -5.3870   -1.0850 ha        1 MOL      0.167861
     98 H42        -4.4310   -5.0650   -0.5660 ha        1 MOL      0.167861
     99 H43        -0.4310   -5.0800   -3.5550 ha        1 MOL      0.116305
    100 H44        -4.6750   -4.8340   -3.0240 ha        1 MOL      0.116305
    101 H45        -1.8400   -5.3150   -5.2160 ho        1 MOL      0.362330
    102 N10         0.1400   -3.5180    1.6510 n         1 MOL     -0.351206
    103 C34         1.3740   -2.7600    1.5010 c3        1 MOL      0.010114
    104 C35         2.4590   -3.7000    1.0350 c         1 MOL      0.338282
    105 O15         2.6880   -4.8480    1.4370 o         1 MOL     -0.530460
    106 C36         1.8590   -1.8290    2.6670 c3        1 MOL      0.092739
    107 C37         2.0960   -2.4290    4.0420 c3        1 MOL      0.141220
    108 C38         0.8750   -0.6660    2.8540 c3        1 MOL     -0.214520
    109 C39         3.4240   -3.2040    4.2960 c3        1 MOL     -0.097576
    110 H46         0.0810   -4.2070    2.3840 hn        1 MOL      0.313881
    111 H47         1.1870   -2.1370    0.6180 h1        1 MOL      0.094729
    112 H48         2.8090   -1.3760    2.3530 hc        1 MOL     -0.081106
    113 H49         1.2280   -3.0690    4.2120 hc        1 MOL     -0.033591
    114 H50         2.0170   -1.6570    4.8030 hc        1 MOL     -0.033591
    115 H51         1.4190    0.1910    3.2270 hc        1 MOL      0.068511
    116 H52         0.3160   -0.3820    1.9580 hc        1 MOL      0.068511
    117 H53         0.1350   -0.9740    3.5960 hc        1 MOL      0.068511
    118 H54         3.3530   -3.7220    5.2610 hc        1 MOL      0.020979
    119 H55         3.5220   -3.9430    3.4970 hc        1 MOL      0.020979
    120 H56         4.2850   -2.5440    4.2200 hc        1 MOL      0.020979
    121 N11         3.3110   -3.1620    0.1920 n         1 MOL     -0.106693
    122 C40         4.6020   -3.7800   -0.3060 c3        1 MOL     -0.059991
    123 C41         5.7930   -2.9740    0.0790 c         1 MOL      0.479196
    124 O16         5.6180   -1.8640    0.5560 o         1 MOL     -0.431318
    125 C42         4.3720   -3.9140   -1.8160 c3        1 MOL     -0.040722
    126 O17         4.2790   -2.6020   -2.5170 oh        1 MOL     -0.600722
    127 H57         3.1230   -2.2640   -0.2320 hn        1 MOL      0.176691
    128 H58         4.7510   -4.7290    0.2120 h1        1 MOL      0.119083
    129 H59         3.4240   -4.4200   -1.9460 h1        1 MOL      0.080468
    130 H60         5.0340   -4.5470   -2.4060 h1        1 MOL      0.080468
    131 H61         3.9060   -2.7870   -3.3900 ho        1 MOL      0.420659
    132 N12         6.9840   -3.3350   -0.3890 n         1 MOL     -0.415401
    133 C43         8.2310   -2.5230   -0.3000 c3        1 MOL      0.123501
    134 C44         8.0860   -1.0950   -0.7530 c         1 MOL      0.512964
    135 O18         8.5920   -0.2370   -0.0810 o         1 MOL     -0.498842
    136 C45         9.3230   -3.3110   -1.0500 c3        1 MOL     -0.286429
    137 H62         7.1010   -4.2390   -0.8100 hn        1 MOL      0.271262
    138 H63         8.5150   -2.4990    0.7590 h1        1 MOL      0.075819
    139 H64        10.0870   -2.6090   -1.4120 hc        1 MOL      0.090309
    140 H65         9.7500   -4.1770   -0.5450 hc        1 MOL      0.090309
    141 H66         8.9130   -3.7630   -1.9480 hc        1 MOL      0.090309
    142 N13         7.3490   -0.8390   -1.8640 n         1 MOL     -0.434791
    143 C46         7.1150    0.5080   -2.3810 c3        1 MOL      0.197619
    144 C47         6.4180    1.4490   -1.3650 c         1 MOL      0.258398
    145 O19         6.8400    2.5630   -1.2370 o         1 MOL     -0.528849
    146 C48         6.2310    0.4240   -3.6880 c3        1 MOL     -0.428797
    147 H67         6.9250   -1.5970   -2.3780 hn        1 MOL      0.243207
    148 H68         8.0650    0.9700   -2.6590 h1        1 MOL      0.068527
    149 H69         6.7920   -0.2480   -4.3480 hc        1 MOL      0.117591
    150 H70         5.2380    0.0830   -3.3870 hc        1 MOL      0.117591
    151 H71         6.0540    1.3860   -4.1500 hc        1 MOL      0.117591
    152 N14         5.4220    1.0000   -0.6740 n         1 MOL      0.011980
    153 C49         4.5510    1.8610    0.1830 c3        1 MOL     -0.040629
    154 C50         5.2050    2.0100    1.5580 c         1 MOL      0.424192
    155 O20         5.2730    3.0630    2.1780 o         1 MOL     -0.525565
    156 C51         3.1790    1.1820    0.3080 c3        1 MOL     -0.028337
    157 C52         2.3430    1.3820   -0.9440 c3        1 MOL     -0.002653
    158 C53         0.9400    0.8100   -0.8330 c         1 MOL      0.801833
    159 O21         0.5490   -0.0630   -1.6510 o         1 MOL     -0.787813
    160 O22         0.0840    1.1910    0.0140 o         1 MOL     -0.787813
    161 H72         5.1140    0.0450   -0.7690 hn        1 MOL      0.227799
    162 H73         4.4530    2.7510   -0.4300 h1        1 MOL      0.038638
    163 H74         2.6400    1.6890    1.0990 hc        1 MOL      0.057596
    164 H75         3.3340    0.1350    0.5700 hc        1 MOL      0.057596
    165 H76         2.9550    0.8950   -1.7080 hc        1 MOL     -0.064587
    166 H77         2.3000    2.4530   -1.1200 hc        1 MOL     -0.064587
    167 N15         5.9190    1.0000    2.0880 n         1 MOL     -0.091799
    168 C54         6.7250    0.9530    3.3560 c3        1 MOL     -0.250916
    169 H78         7.4320    1.7820    3.3670 h1        1 MOL      0.111114
    170 H79         6.0580    1.0340    4.2150 h1        1 MOL      0.111114
    171 H80         7.2710    0.0110    3.4060 h1        1 MOL      0.111114
    172 H81         5.8990    0.1400    1.5520 hn        1 MOL      0.089854
    173 Ca1        -2.0550   -0.1080   -1.0700 Ca        1 MOL      1.736776
    174 O23        -1.3510   -1.8230   -2.9530 oh        1 MOL     -0.852745
    175 H82        -0.5440   -2.1270   -2.5380 ho        1 MOL      0.416129
    176 H83        -1.3410   -2.2300   -3.8230 ho        1 MOL      0.416129
@<TRIPOS>BOND
     1    1    2 1   
     2    1    4 1   
     3    1    5 1   
     4    1    6 1   
     5    2    3 2   
     6    2    7 1   
     7    7    8 1   
     8    7   15 1   
     9    8    9 1   
    10    8   11 1   
    11    8   16 1   
    12    9   10 2   
    13    9   19 1   
    14   11   12 1   
    15   11   17 1   
    16   11   18 1   
    17   12   13 1   
    18   12   14 1   
    19   19   20 1   
    20   19   28 1   
    21   20   21 1   
    22   20   23 1   
    23   20   29 1   
    24   21   22 2   
    25   21   41 1   
    26   23   24 1   
    27   23   30 1   
    28   23   31 1   
    29   24   25 1   
    30   24   32 1   
    31   24   33 1   
    32   25   26 1   
    33   25   34 1   
    34   25   35 1   
    35   26   27 1   
    36   26   36 1   
    37   26   37 1   
    38   27   38 1   
    39   27   39 1   
    40   27   40 1   
    41   41   42 1   
    42   41   49 1   
    43   42   43 1   
    44   42   45 1   
    45   42   50 1   
    46   43   44 2   
    47   43   53 1   
    48   45   46 1   
    49   45   51 1   
    50   45   52 1   
    51   46   47 1   
    52   46   48 1   
    53   53   54 1   
    54   53   57 1   
    55   54   55 1   
    56   54   58 1   
    57   54   59 1   
    58   55   56 2   
    59   55   60 1   
    60   60   61 1   
    61   60   68 1   
    62   61   62 1   
    63   61   64 1   
    64   61   69 1   
    65   62   63 2   
    66   62   74 1   
    67   64   65 1   
    68   64   70 1   
    69   64   71 1   
    70   65   66 1   
    71   65   67 2   
    72   66   72 1   
    73   66   73 1   
    74   74   75 1   
    75   74   78 1   
    76   75   76 1   
    77   75   79 1   
    78   75   80 1   
    79   76   77 2   
    80   76   81 1   
    81   81   82 1   
    82   81   93 1   
    83   82   83 1   
    84   82   85 1   
    85   82   94 1   
    86   83   84 2   
    87   83  102 1   
    88   85   86 1   
    89   85   95 1   
    90   85   96 1   
    91   86   87 ar  
    92   86   88 ar  
    93   87   89 ar  
    94   87   97 1   
    95   88   90 ar  
    96   88   98 1   
    97   89   91 ar  
    98   89   99 1   
    99   90   91 ar  
   100   90  100 1   
   101   91   92 1   
   102   92  101 1   
   103  102  103 1   
   104  102  110 1   
   105  103  104 1   
   106  103  106 1   
   107  103  111 1   
   108  104  105 2   
   109  104  121 1   
   110  106  107 1   
   111  106  108 1   
   112  106  112 1   
   113  107  109 1   
   114  107  113 1   
   115  107  114 1   
   116  108  115 1   
   117  108  116 1   
   118  108  117 1   
   119  109  118 1   
   120  109  119 1   
   121  109  120 1   
   122  121  122 1   
   123  121  127 1   
   124  122  123 1   
   125  122  125 1   
   126  122  128 1   
   127  123  124 2   
   128  123  132 1   
   129  125  126 1   
   130  125  129 1   
   131  125  130 1   
   132  126  131 1   
   133  132  133 1   
   134  132  137 1   
   135  133  134 1   
   136  133  136 1   
   137  133  138 1   
   138  134  135 2   
   139  134  142 1   
   140  136  139 1   
   141  136  140 1   
   142  136  141 1   
   143  142  143 1   
   144  142  147 1   
   145  143  144 1   
   146  143  146 1   
   147  143  148 1   
   148  144  145 2   
   149  144  152 1   
   150  146  149 1   
   151  146  150 1   
   152  146  151 1   
   153  152  153 1   
   154  152  161 1   
   155  153  154 1   
   156  153  156 1   
   157  153  162 1   
   158  154  155 2   
   159  154  167 1   
   160  156  157 1   
   161  156  163 1   
   162  156  164 1   
   163  157  158 1   
   164  157  165 1   
   165  157  166 1   
   166  158  159 1   
   167  158  160 1   
   168  167  168 1   
   169  167  172 1   
   170  168  169 1   
   171  168  170 1   
   172  168  171 1   
   173  174  175 1   
   174  174  176 1   
@<TRIPOS>SUBSTRUCTURE
     1 MOL         1 TEMP              0 ****  ****    0 ROOT
