@<TRIPOS>MOLECULE
MOL
  179   176     1     0     0
SMALL
resp


@<TRIPOS>ATOM
      1 C1          0.6650   -4.9310    4.8340 c3        1 MOL     -0.116933
      2 C2          1.0500   -4.2490    3.4740 c         1 MOL      0.450613
      3 O1          0.5060   -4.5690    2.4700 o         1 MOL     -0.464636
      4 H1          1.4970   -5.5450    5.1800 hc        1 MOL      0.031623
      5 H2          0.4470   -4.1650    5.5780 hc        1 MOL      0.031623
      6 H3         -0.2140   -5.5590    4.6900 hc        1 MOL      0.031623
      7 N1          1.9220   -3.2220    3.4790 n         1 MOL     -0.386749
      8 C3          2.3790   -2.5610    2.1900 c3        1 MOL      0.076858
      9 C4          3.4430   -3.4070    1.3490 c         1 MOL      0.270405
     10 O2          4.6610   -3.3620    1.6000 o         1 MOL     -0.492959
     11 C5          2.8820   -1.1580    2.4900 c3        1 MOL     -0.100975
     12 C6          3.1980   -0.3550    1.2210 c         1 MOL      0.836204
     13 O3          2.5170   -0.6220    0.2020 o         1 MOL     -0.778983
     14 O4          4.1330    0.4640    1.2040 o         1 MOL     -0.778983
     15 H4          2.2690   -2.7840    4.3170 hn        1 MOL      0.270870
     16 H5          1.4220   -2.4890    1.6630 h1        1 MOL      0.015225
     17 H6          3.7270   -1.2230    3.1680 hc        1 MOL      0.021069
     18 H7          2.0980   -0.6340    3.0440 hc        1 MOL      0.021069
     19 N2          2.9920   -4.3360    0.4750 n         1 MOL      0.040109
     20 C7          3.8020   -5.4010   -0.1930 c3        1 MOL     -0.178816
     21 C8          4.4830   -4.8900   -1.4980 c         1 MOL      0.350998
     22 O5          5.3720   -5.5690   -1.9640 o         1 MOL     -0.522349
     23 C9          2.9790   -6.6630   -0.5150 c3        1 MOL     -0.075806
     24 C10         2.0750   -7.2990    0.6290 c3        1 MOL     -0.011314
     25 C11         2.7060   -7.3850    2.0290 c3        1 MOL     -0.129359
     26 C12         3.8370   -8.4400    1.9450 c3        1 MOL      0.070427
     27 N3          4.5730   -8.4280    3.2150 n4        1 MOL     -0.544313
     28 H8          2.0030   -4.3420    0.2530 hn        1 MOL      0.226888
     29 H9          4.6010   -5.6880    0.4890 h1        1 MOL      0.117154
     30 H10         3.5290   -7.4980   -0.9390 hc        1 MOL      0.062238
     31 H11         2.3080   -6.4150   -1.3460 hc        1 MOL      0.062238
     32 H12         1.8100   -8.3050    0.2920 hc        1 MOL      0.036702
     33 H13         1.2290   -6.6250    0.7460 hc        1 MOL      0.036702
     34 H14         1.8700   -7.7070    2.6370 hc        1 MOL      0.053606
     35 H15         3.0900   -6.3790    2.2040 hc        1 MOL      0.053606
     36 H16         4.4930   -8.1890    1.1210 hx        1 MOL      0.092008
     37 H17         3.3350   -9.3740    1.6760 hx        1 MOL      0.092008
     38 H18         5.2950   -9.1280    3.1610 hn        1 MOL      0.379803
     39 H19         5.0650   -7.5540    3.3100 hn        1 MOL      0.379803
     40 H20         3.9160   -8.6630    3.9450 hn        1 MOL      0.379803
     41 N4          4.0820   -3.7610   -2.0890 n         1 MOL     -0.080629
     42 C13         4.8820   -3.0690   -3.0700 c3        1 MOL      0.094516
     43 C14         5.7980   -1.9030   -2.5460 c         1 MOL      0.392911
     44 O6          6.7130   -1.4470   -3.2630 o         1 MOL     -0.537897
     45 C15         3.8430   -2.3340   -4.0410 c3        1 MOL     -0.386316
     46 C16         2.7800   -1.3750   -3.3690 c         1 MOL      0.784740
     47 O7          1.7210   -1.8750   -2.8570 o         1 MOL     -0.722211
     48 O8          3.0650   -0.2190   -3.1060 o         1 MOL     -0.722211
     49 H21         3.3020   -3.2420   -1.7080 hn        1 MOL      0.062244
     50 H22         5.5900   -3.7570   -3.5370 h1        1 MOL      0.089773
     51 H23         3.3090   -3.1530   -4.5170 hc        1 MOL      0.094158
     52 H24         4.3880   -1.7450   -4.7800 hc        1 MOL      0.094158
     53 N5          5.5600   -1.4780   -1.3200 n         1 MOL     -0.065539
     54 C17         6.5440   -0.6730   -0.6180 c3        1 MOL     -0.293520
     55 C18         6.5080    0.8040   -0.9080 c         1 MOL      0.630569
     56 O9          7.3300    1.4650   -0.2730 o         1 MOL     -0.584331
     57 H25         4.7240   -1.7540   -0.8340 hn        1 MOL      0.099055
     58 H26         7.5530   -0.9410   -0.9250 h1        1 MOL      0.135570
     59 H27         6.5360   -0.9630    0.4340 h1        1 MOL      0.135570
     60 N6          5.4660    1.3430   -1.5700 n         1 MOL     -0.373340
     61 C19         5.4320    2.7560   -2.0100 c3        1 MOL     -0.071522
     62 C20         5.2820    3.6610   -0.7100 c         1 MOL      0.339504
     63 O10         5.5530    4.8430   -0.8090 o         1 MOL     -0.515701
     64 C21         4.3030    3.0830   -3.0100 c3        1 MOL     -0.140604
     65 C22         2.9070    3.1300   -2.3690 c         1 MOL      0.660198
     66 N7          2.2660    4.2360   -2.4850 n         1 MOL     -0.786421
     67 O11         2.3940    2.2620   -1.7520 o         1 MOL     -0.701232
     68 H28         4.7070    0.7150   -1.8270 hn        1 MOL      0.296475
     69 H29         6.4020    3.0650   -2.3840 h1        1 MOL      0.126079
     70 H30         4.3070    2.4010   -3.8680 hc        1 MOL      0.083862
     71 H31         4.4460    4.0510   -3.4920 hc        1 MOL      0.083862
     72 H32         2.7180    5.0000   -2.9560 hn        1 MOL      0.373317
     73 H33         1.2970    4.2140   -2.2000 hn        1 MOL      0.373317
     74 N8          4.9530    3.0990    0.4450 n         1 MOL      0.002979
     75 C23         4.7940    3.8370    1.7460 c3        1 MOL     -0.544508
     76 C24         3.3450    4.0650    2.1530 c         1 MOL      0.778898
     77 O12         3.1450    4.6130    3.2650 o         1 MOL     -0.613496
     78 H34         4.8340    2.0900    0.4190 hn        1 MOL      0.314064
     79 H35         5.1980    4.8490    1.7080 h1        1 MOL      0.198635
     80 H36         5.2750    3.2840    2.5540 h1        1 MOL      0.198635
     81 N9          2.4380    3.5470    1.4100 n         1 MOL     -0.667617
     82 C25         0.9600    3.8840    1.5350 c3        1 MOL      0.427505
     83 C26         0.1110    2.6040    1.3610 c         1 MOL      0.491268
     84 O13         0.4100    1.7730    0.5050 o         1 MOL     -0.645047
     85 C27         0.5520    5.0430    0.6360 c3        1 MOL     -0.084950
     86 C28         1.3560    6.2580    0.9850 ca        1 MOL      0.039139
     87 C29         2.5150    6.6830    0.2520 ca        1 MOL     -0.220603
     88 C30         0.8310    7.0220    2.0740 ca        1 MOL     -0.220603
     89 C31         3.0070    7.9520    0.4300 ca        1 MOL     -0.080255
     90 C32         1.3840    8.3250    2.2810 ca        1 MOL     -0.080255
     91 C33         2.3540    8.7920    1.3480 ca        1 MOL      0.147190
     92 O14         2.9280   10.0900    1.5110 oh        1 MOL     -0.490931
     93 H37         2.7360    2.9720    0.6390 hn        1 MOL      0.401136
     94 H38         0.8280    4.1940    2.5690 h1        1 MOL     -0.028834
     95 H39        -0.4970    5.2580    0.8170 hc        1 MOL      0.013805
     96 H40         0.6880    4.6500   -0.3740 hc        1 MOL      0.013805
     97 H41         2.8010    5.9870   -0.5250 ha        1 MOL      0.137575
     98 H42        -0.0010    6.5980    2.6140 ha        1 MOL      0.137575
     99 H43         3.8150    8.2530   -0.2160 ha        1 MOL      0.119830
    100 H44         0.9870    8.9720    3.0530 ha        1 MOL      0.119830
    101 H45         2.7470   10.5650    2.3240 ho        1 MOL      0.366937
    102 N10        -1.1130    2.5820    1.9220 n         1 MOL     -0.570902
    103 C34        -2.1030    1.4810    1.7490 c3        1 MOL     -0.345087
    104 C35        -3.4740    2.1260    1.4710 c         1 MOL      0.865164
    105 O15        -4.0340    2.8020    2.3190 o         1 MOL     -0.569049
    106 C36        -2.1090    0.4760    2.9300 c3        1 MOL      0.020281
    107 C37        -0.8060   -0.2560    3.0120 c3        1 MOL      0.286393
    108 C38        -3.1730   -0.5600    2.7440 c3        1 MOL     -0.473006
    109 C39        -0.5400   -1.1540    4.2190 c3        1 MOL     -0.304683
    110 H46        -1.3530    3.2740    2.6160 hn        1 MOL      0.346395
    111 H47        -1.8620    0.9250    0.8330 h1        1 MOL      0.241977
    112 H48        -2.3520    0.9740    3.8700 hc        1 MOL      0.050560
    113 H49         0.0010    0.4650    3.0640 hc        1 MOL      0.015798
    114 H50        -0.5680   -0.8340    2.1180 hc        1 MOL      0.015798
    115 H51        -4.0760    0.0450    2.7340 hc        1 MOL      0.130981
    116 H52        -2.9440   -1.2470    1.9260 hc        1 MOL      0.130981
    117 H53        -3.1730   -1.1650    3.6490 hc        1 MOL      0.130981
    118 H54        -1.0530   -0.6080    5.0030 hc        1 MOL      0.056443
    119 H55        -1.1440   -2.0390    4.0210 hc        1 MOL      0.056443
    120 H56         0.5170   -1.2260    4.4720 hc        1 MOL      0.056443
    121 N11        -3.9410    2.1860    0.1810 n         1 MOL     -0.665968
    122 C40        -5.3180    2.6130   -0.1320 c3        1 MOL      0.188627
    123 C41        -6.4240    1.5950    0.4960 c         1 MOL      0.283517
    124 O16        -6.1260    0.4480    0.8390 o         1 MOL     -0.327068
    125 C42        -5.4940    2.8240   -1.6430 c3        1 MOL     -0.015098
    126 O17        -5.6140    1.4880   -2.2120 oh        1 MOL     -0.439341
    127 H57        -3.3620    1.8190   -0.5520 hn        1 MOL      0.369146
    128 H58        -5.5380    3.5920    0.2840 h1        1 MOL      0.043676
    129 H59        -4.6470    3.4090   -2.0090 h1        1 MOL      0.056248
    130 H60        -6.4230    3.3790   -1.7780 h1        1 MOL      0.056248
    131 H61        -5.8210    1.6000   -3.1450 ho        1 MOL      0.368828
    132 N12        -7.6830    1.9010    0.5620 n         1 MOL     -0.315058
    133 C43        -8.6750    0.9500    1.0500 c3        1 MOL      0.135747
    134 C44        -9.0660   -0.1720    0.1440 c         1 MOL      0.443080
    135 O18        -9.1290   -1.3370    0.5490 o         1 MOL     -0.482852
    136 C45        -9.9100    1.7490    1.4400 c3        1 MOL     -0.522619
    137 H62        -8.0640    2.7840    0.2600 hn        1 MOL      0.257472
    138 H63        -8.3430    0.5450    2.0050 h1        1 MOL      0.126406
    139 H64       -10.1510    2.4050    0.6080 hc        1 MOL      0.146186
    140 H65       -10.7110    1.0230    1.5620 hc        1 MOL      0.146186
    141 H66        -9.6390    2.2800    2.3500 hc        1 MOL      0.146186
    142 N13        -9.0210    0.1350   -1.1770 n         1 MOL     -0.425633
    143 C46        -9.0960   -0.9400   -2.2140 c3        1 MOL      0.177428
    144 C47        -7.8370   -1.8640   -2.2220 c         1 MOL      0.378338
    145 O19        -8.0370   -3.0910   -2.3480 o         1 MOL     -0.507160
    146 C48        -9.2900   -0.3890   -3.6080 c3        1 MOL     -0.228463
    147 H67        -9.0260    1.1110   -1.4480 hn        1 MOL      0.277738
    148 H68        -9.9130   -1.6200   -1.9780 h1        1 MOL      0.078875
    149 H69        -8.3560    0.0250   -3.9700 hc        1 MOL      0.058776
    150 H70        -9.6220   -1.1720   -4.2850 hc        1 MOL      0.058776
    151 H71        -9.9390    0.4960   -3.5780 hc        1 MOL      0.058776
    152 N14        -6.6560   -1.3940   -1.8220 n         1 MOL     -0.143728
    153 C49        -5.4790   -2.2410   -1.5790 c3        1 MOL     -0.188850
    154 C50        -5.6120   -3.0000   -0.2620 c         1 MOL      0.526126
    155 O20        -5.3090   -4.1800   -0.1800 o         1 MOL     -0.576731
    156 C51        -4.2540   -1.4010   -1.5370 c3        1 MOL      0.166902
    157 C52        -2.9910   -2.2570   -1.3250 c3        1 MOL     -0.254509
    158 C53        -1.6560   -1.5470   -1.4630 c         1 MOL      0.705801
    159 O21        -0.9410   -1.3630   -0.4280 o         1 MOL     -0.707260
    160 O22        -1.3020   -1.0450   -2.5680 o         1 MOL     -0.707260
    161 H72        -6.5410   -0.3840   -1.7610 hn        1 MOL      0.073182
    162 H73        -5.3620   -2.9930   -2.3550 h1        1 MOL      0.129268
    163 H74        -4.2210   -0.6250   -0.7800 hc        1 MOL     -0.034922
    164 H75        -4.2060   -0.8310   -2.4660 hc        1 MOL     -0.034922
    165 H76        -3.0980   -3.0270   -2.0890 hc        1 MOL      0.063722
    166 H77        -3.1530   -2.7880   -0.3850 hc        1 MOL      0.063722
    167 N15        -6.2180   -2.3950    0.7210 n         1 MOL      0.015908
    168 C54        -6.3460   -3.0760    2.0720 c3        1 MOL     -0.223380
    169 H78        -5.5610   -3.8240    2.1770 h1        1 MOL      0.090182
    170 H79        -6.2470   -2.3340    2.8650 h1        1 MOL      0.090182
    171 H80        -7.3200   -3.5580    2.1460 h1        1 MOL      0.090182
    172 H81        -6.4940   -1.4270    0.6210 hn        1 MOL     -0.008121
    173 Ca1         0.9080    0.1620   -1.5820 Ca        1 MOL      1.662582
    174 O23        -1.1390    2.0290   -1.7670 oh        1 MOL     -0.744168
    175 H82        -0.8310    2.9330   -1.6740 ho        1 MOL      0.378033
    176 H83        -1.7210    2.0450   -2.5230 ho        1 MOL      0.378033
    177 O24         0.4060    1.2040   -4.1730 oh        1 MOL     -0.744168
    178 H84        -0.2930    0.9630   -4.7880 ho        1 MOL      0.378033
    179 H85         0.8380    1.9580   -4.5710 ho        1 MOL      0.378033
@<TRIPOS>BOND
     1    1    2 1   
     2    1    4 1   
     3    1    5 1   
     4    1    6 1   
     5    2    3 2   
     6    2    7 1   
     7    7    8 1   
     8    7   15 1   
     9    8    9 1   
    10    8   11 1   
    11    8   16 1   
    12    9   10 2   
    13    9   19 1   
    14   11   12 1   
    15   11   17 1   
    16   11   18 1   
    17   12   13 1   
    18   12   14 1   
    19   19   20 1   
    20   19   28 1   
    21   20   21 1   
    22   20   23 1   
    23   20   29 1   
    24   21   22 2   
    25   21   41 1   
    26   23   24 1   
    27   23   30 1   
    28   23   31 1   
    29   24   25 1   
    30   24   32 1   
    31   24   33 1   
    32   25   26 1   
    33   25   34 1   
    34   25   35 1   
    35   26   27 1   
    36   26   36 1   
    37   26   37 1   
    38   27   38 1   
    39   27   39 1   
    40   27   40 1   
    41   41   42 1   
    42   41   49 1   
    43   42   43 1   
    44   42   45 1   
    45   42   50 1   
    46   43   44 2   
    47   43   53 1   
    48   45   46 1   
    49   45   51 1   
    50   45   52 1   
    51   46   47 1   
    52   46   48 1   
    53   53   54 1   
    54   53   57 1   
    55   54   55 1   
    56   54   58 1   
    57   54   59 1   
    58   55   56 2   
    59   55   60 1   
    60   60   61 1   
    61   60   68 1   
    62   61   62 1   
    63   61   64 1   
    64   61   69 1   
    65   62   63 2   
    66   62   74 1   
    67   64   65 1   
    68   64   70 1   
    69   64   71 1   
    70   65   66 1   
    71   65   67 2   
    72   66   72 1   
    73   66   73 1   
    74   74   75 1   
    75   74   78 1   
    76   75   76 1   
    77   75   79 1   
    78   75   80 1   
    79   76   77 2   
    80   76   81 1   
    81   81   82 1   
    82   81   93 1   
    83   82   83 1   
    84   82   85 1   
    85   82   94 1   
    86   83   84 2   
    87   83  102 1   
    88   85   86 1   
    89   85   95 1   
    90   85   96 1   
    91   86   87 ar  
    92   86   88 ar  
    93   87   89 ar  
    94   87   97 1   
    95   88   90 ar  
    96   88   98 1   
    97   89   91 ar  
    98   89   99 1   
    99   90   91 ar  
   100   90  100 1   
   101   91   92 1   
   102   92  101 1   
   103  102  103 1   
   104  102  110 1   
   105  103  104 1   
   106  103  106 1   
   107  103  111 1   
   108  104  105 2   
   109  104  121 1   
   110  106  107 1   
   111  106  108 1   
   112  106  112 1   
   113  107  109 1   
   114  107  113 1   
   115  107  114 1   
   116  108  115 1   
   117  108  116 1   
   118  108  117 1   
   119  109  118 1   
   120  109  119 1   
   121  109  120 1   
   122  121  122 1   
   123  121  127 1   
   124  122  123 1   
   125  122  125 1   
   126  122  128 1   
   127  123  124 2   
   128  123  132 1   
   129  125  126 1   
   130  125  129 1   
   131  125  130 1   
   132  126  131 1   
   133  132  133 1   
   134  132  137 1   
   135  133  134 1   
   136  133  136 1   
   137  133  138 1   
   138  134  135 2   
   139  134  142 1   
   140  136  139 1   
   141  136  140 1   
   142  136  141 1   
   143  142  143 1   
   144  142  147 1   
   145  143  144 1   
   146  143  146 1   
   147  143  148 1   
   148  144  145 2   
   149  144  152 1   
   150  146  149 1   
   151  146  150 1   
   152  146  151 1   
   153  152  153 1   
   154  152  161 1   
   155  153  154 1   
   156  153  156 1   
   157  153  162 1   
   158  154  155 2   
   159  154  167 1   
   160  156  157 1   
   161  156  163 1   
   162  156  164 1   
   163  157  158 1   
   164  157  165 1   
   165  157  166 1   
   166  158  159 1   
   167  158  160 1   
   168  167  168 1   
   169  167  172 1   
   170  168  169 1   
   171  168  170 1   
   172  168  171 1   
   173  174  175 1   
   174  174  176 1   
   175  177  178 1   
   176  177  179 1   
@<TRIPOS>SUBSTRUCTURE
     1 MOL         1 TEMP              0 ****  ****    0 ROOT
