@<TRIPOS>MOLECULE
MOL
  189   185     1     0     0
SMALL
resp


@<TRIPOS>ATOM
      1 C1         -0.3510    0.9130    6.3080 c3        1 MOL     -0.333043
      2 C2         -0.8130    0.9820    4.8510 c         1 MOL      0.802554
      3 O1         -0.0170    1.1450    3.9520 o         1 MOL     -0.641248
      4 H1          0.7150    1.1320    6.3610 hc        1 MOL      0.083771
      5 H2         -0.9010    1.6450    6.8990 hc        1 MOL      0.083771
      6 H3         -0.5370   -0.0860    6.7020 hc        1 MOL      0.083771
      7 N1         -2.1230    0.8780    4.5440 n         1 MOL     -0.722432
      8 C3         -2.6450    0.8220    3.1870 c3        1 MOL      0.218508
      9 C4         -2.8850    2.2650    2.6130 c         1 MOL      0.556893
     10 O2         -3.8250    2.9160    2.9790 o         1 MOL     -0.543802
     11 C5         -3.9710    0.0440    3.0710 c3        1 MOL     -0.224064
     12 C6         -4.4740    0.0070    1.6330 c         1 MOL      0.846280
     13 O3         -5.6650   -0.3260    1.4580 o         1 MOL     -0.689340
     14 O4         -3.6700    0.2910    0.7430 o         1 MOL     -0.689340
     15 H4         -2.8460    0.6880    5.2250 hn        1 MOL      0.347423
     16 H5         -2.0140    0.3170    2.4650 h1        1 MOL      0.018444
     17 H6         -4.7670    0.5210    3.6310 hc        1 MOL      0.038263
     18 H7         -3.7680   -0.9510    3.4750 hc        1 MOL      0.038263
     19 N2         -2.0150    2.8600    1.7830 n         1 MOL     -0.228526
     20 C7         -1.9370    4.3180    1.5180 c3        1 MOL     -0.264141
     21 C8         -3.0920    4.9140    0.7100 c         1 MOL      0.539045
     22 O5         -3.5190    6.0700    0.9010 o         1 MOL     -0.619349
     23 C9         -0.6140    4.5760    0.7780 c3        1 MOL      0.062845
     24 C10        -0.2240    6.0070    0.6010 c3        1 MOL     -0.085956
     25 C11         1.0540    6.1150   -0.2730 c3        1 MOL     -0.132383
     26 C12         1.5560    7.5070    0.0880 c3        1 MOL      0.220613
     27 N3          2.9500    7.7360   -0.4320 n4        1 MOL     -0.411716
     28 H8         -1.3840    2.2570    1.2850 hn        1 MOL      0.196460
     29 H9         -1.7400    4.7480    2.5000 h1        1 MOL      0.134524
     30 H10        -0.6880    4.1240   -0.2140 hc        1 MOL      0.071921
     31 H11         0.1730    4.0140    1.2840 hc        1 MOL      0.071921
     32 H12        -0.2050    6.4580    1.5900 hc        1 MOL      0.046088
     33 H13        -0.9110    6.5950   -0.0150 hc        1 MOL      0.046088
     34 H14         0.7720    6.0160   -1.3210 hc        1 MOL      0.047150
     35 H15         1.7440    5.3610    0.0990 hc        1 MOL      0.047150
     36 H16         1.5820    7.6710    1.1590 hx        1 MOL      0.046553
     37 H17         0.9250    8.3120   -0.2930 hx        1 MOL      0.046553
     38 H18         3.2160    8.6870   -0.2020 hn        1 MOL      0.324558
     39 H19         3.6240    7.0570   -0.0920 hn        1 MOL      0.324558
     40 H20         2.9820    7.7330   -1.4400 hn        1 MOL      0.324558
     41 N4         -3.5990    4.1180   -0.1650 n         1 MOL     -0.037257
     42 C13        -4.4760    4.4020   -1.3160 c3        1 MOL     -0.076884
     43 C14        -5.8080    3.6470   -1.1720 c         1 MOL      0.383621
     44 O6         -6.7200    3.8840   -1.9290 o         1 MOL     -0.508991
     45 C15        -3.7910    4.1020   -2.6500 c3        1 MOL     -0.047076
     46 C16        -2.8290    2.8990   -2.7590 c         1 MOL      0.743753
     47 O7         -2.6070    2.1780   -1.7990 o         1 MOL     -0.709847
     48 O8         -2.3650    2.6610   -3.8790 o         1 MOL     -0.709847
     49 H21        -3.2010    3.1990   -0.0060 hn        1 MOL     -0.078291
     50 H22        -4.6750    5.4730   -1.3140 h1        1 MOL      0.092207
     51 H23        -3.1320    4.9470   -2.8520 hc        1 MOL      0.019739
     52 H24        -4.5280    4.0750   -3.4580 hc        1 MOL      0.019739
     53 N5         -5.9750    2.7120   -0.2580 n         1 MOL     -0.016899
     54 C17        -7.2180    2.0560    0.0980 c3        1 MOL     -0.197052
     55 C18        -7.6360    0.9510   -0.8320 c         1 MOL      0.574093
     56 O9         -8.7430    1.0230   -1.4060 o         1 MOL     -0.562867
     57 H25        -5.2420    2.6100    0.4340 hn        1 MOL      0.118296
     58 H26        -7.9550    2.8570    0.0650 h1        1 MOL      0.089164
     59 H27        -7.1470    1.6840    1.1160 h1        1 MOL      0.089164
     60 N6         -6.7320   -0.0640   -1.0760 n         1 MOL     -0.176325
     61 C19        -6.9530   -1.2140   -1.9910 c3        1 MOL     -0.077282
     62 C20        -7.0740   -2.5740   -1.3760 c         1 MOL      0.451680
     63 O10        -7.4920   -3.5680   -1.9710 o         1 MOL     -0.545988
     64 C21        -5.8890   -1.1740   -3.0590 c3        1 MOL     -0.084854
     65 C22        -4.4600   -1.0750   -2.5990 c         1 MOL      0.618498
     66 O11        -4.0520   -1.6670   -1.6260 o         1 MOL     -0.647600
     67 O12        -3.6550   -0.3620   -3.2670 o         1 MOL     -0.647600
     68 H28        -5.8910   -0.0170   -0.5300 hn        1 MOL      0.003049
     69 H29        -7.8680   -0.9830   -2.5510 h1        1 MOL      0.108187
     70 H30        -6.0660   -0.3180   -3.7190 hc        1 MOL      0.049694
     71 H31        -5.9290   -2.0500   -3.6950 hc        1 MOL      0.049694
     72 N7         -6.6530   -2.6800   -0.1340 n         1 MOL     -0.257084
     73 C23        -6.5610   -4.0550    0.4240 c3        1 MOL     -0.167369
     74 C24        -5.1880   -4.6620    0.3750 c         1 MOL      0.472542
     75 O13        -5.1170   -5.8270    0.8250 o         1 MOL     -0.576866
     76 H32        -6.2400   -1.9370    0.4150 hn        1 MOL      0.236914
     77 H33        -7.3160   -4.7320    0.0350 h1        1 MOL      0.116402
     78 H34        -6.7460   -3.9050    1.4870 h1        1 MOL      0.116402
     79 N8         -4.1470   -3.9780   -0.0410 n         1 MOL     -0.195508
     80 C25        -2.8450   -4.5770    0.0420 c3        1 MOL     -0.053744
     81 C26        -1.7600   -3.5330    0.4750 c         1 MOL      0.691336
     82 O14        -1.9830   -2.3590    0.5710 o         1 MOL     -0.726467
     83 C27        -2.5120   -5.2940   -1.2580 c3        1 MOL      0.394872
     84 C28        -3.2230   -6.5330   -1.4680 c3        1 MOL     -0.471372
     85 O15        -2.7990   -4.5450   -2.4030 oh        1 MOL     -0.595038
     86 H35        -4.3450   -3.0950   -0.5030 hn        1 MOL      0.219675
     87 H36        -2.7990   -5.3510    0.8030 h1        1 MOL      0.067791
     88 H37        -1.4460   -5.5250   -1.1680 h1        1 MOL      0.007830
     89 H38        -3.6680   -4.1620   -2.2780 ho        1 MOL      0.399462
     90 H39        -3.2500   -7.1070   -0.5400 hc        1 MOL      0.118308
     91 H40        -4.2780   -6.4100   -1.7020 hc        1 MOL      0.118308
     92 H41        -2.8710   -7.1570   -2.2900 hc        1 MOL      0.118308
     93 N9         -0.6030   -4.0150    0.8940 n         1 MOL     -0.601580
     94 C29         0.5260   -3.1390    1.2570 c3        1 MOL      0.076172
     95 C30         1.7720   -3.4530    0.4210 c         1 MOL      0.487449
     96 O16         2.2290   -4.6510    0.3890 o         1 MOL     -0.553669
     97 C31         0.8620   -3.3190    2.7720 c3        1 MOL      0.167703
     98 C32        -0.4120   -3.0930    3.6540 c3        1 MOL      0.008039
     99 C33         1.9590   -2.3590    3.2150 c3        1 MOL     -0.133676
    100 C34        -0.2880   -3.6710    5.1240 c3        1 MOL     -0.194688
    101 H42        -0.4200   -5.0050    0.9800 hn        1 MOL      0.307723
    102 H43         0.2960   -2.0940    1.0030 h1        1 MOL      0.116895
    103 H44         1.2110   -4.3410    2.9240 hc        1 MOL     -0.018288
    104 H45        -1.3110   -3.5940    3.3120 hc        1 MOL      0.038661
    105 H46        -0.5100   -2.0120    3.7340 hc        1 MOL      0.038661
    106 H47         1.7140   -1.3150    3.0430 hc        1 MOL      0.010007
    107 H48         2.2160   -2.5300    4.2530 hc        1 MOL      0.010007
    108 H49         2.8350   -2.6370    2.6370 hc        1 MOL      0.010007
    109 H50         0.5410   -3.2270    5.6900 hc        1 MOL      0.045100
    110 H51        -1.1650   -3.4860    5.7380 hc        1 MOL      0.045100
    111 H52        -0.1960   -4.7550    5.1520 hc        1 MOL      0.045100
    112 N10         2.2980   -2.5240   -0.3740 n         1 MOL     -0.357042
    113 C35         3.6480   -2.5490   -1.0000 c3        1 MOL      0.039835
    114 C36         4.8600   -2.2750   -0.0760 c         1 MOL      0.334324
    115 O17         4.6630   -1.7900    1.0540 o         1 MOL     -0.219405
    116 C37         3.7880   -1.5090   -2.1740 c3        1 MOL      0.361009
    117 C38         2.9200   -1.8960   -3.3540 c3        1 MOL     -0.465312
    118 O18         3.4490   -0.2010   -1.8190 oh        1 MOL     -0.552917
    119 H53         1.7930   -1.6500   -0.4690 hn        1 MOL      0.195252
    120 H54         3.8600   -3.5270   -1.4510 h1        1 MOL      0.050493
    121 H55         4.7870   -1.7230   -2.5550 h1        1 MOL     -0.037261
    122 H56         2.5030   -0.2630   -1.6640 ho        1 MOL      0.371573
    123 H57         1.9060   -2.1430   -3.0570 hc        1 MOL      0.122059
    124 H58         2.9260   -1.1300   -4.1360 hc        1 MOL      0.122059
    125 H59         3.3710   -2.7840   -3.8000 hc        1 MOL      0.122059
    126 N11         6.0600   -2.7070   -0.4760 n         1 MOL     -0.373770
    127 C39         7.3040   -2.4550    0.2990 c3        1 MOL     -0.108214
    128 C40         7.6550   -0.9970    0.4340 c         1 MOL      0.234623
    129 O19         8.0750   -0.5070    1.5150 o         1 MOL     -0.401116
    130 C41         8.5500   -3.0580   -0.4140 c3        1 MOL      0.323154
    131 C42         8.5060   -4.6360   -0.3700 c3        1 MOL     -0.447238
    132 O20         8.7370   -2.5990   -1.7580 oh        1 MOL     -0.612814
    133 H60         6.1930   -3.1690   -1.3620 hn        1 MOL      0.292048
    134 H61         7.1730   -2.9110    1.2840 h1        1 MOL      0.157882
    135 H62         9.4170   -2.7940    0.1890 h1        1 MOL      0.051120
    136 H63         9.6950   -2.5320   -1.8420 ho        1 MOL      0.397910
    137 H64         9.3790   -5.0480   -0.8760 hc        1 MOL      0.129457
    138 H65         8.3870   -5.0540    0.6300 hc        1 MOL      0.129457
    139 H66         7.7030   -4.9600   -1.0390 hc        1 MOL      0.129457
    140 N12         7.3550   -0.1760   -0.6770 n         1 MOL     -0.176551
    141 C43         7.2560    1.2680   -0.4940 c3        1 MOL     -0.091066
    142 C44         6.3050    1.8170    0.5750 c         1 MOL      0.384059
    143 O21         6.7140    2.7690    1.2450 o         1 MOL     -0.474577
    144 C45         6.9360    1.8670   -1.8450 c3        1 MOL     -0.018836
    145 C46         8.0610    1.8030   -2.8470 c3        1 MOL      0.160023
    146 C47         7.5700    2.4500   -4.1250 c3        1 MOL     -0.230287
    147 C48         6.7240    1.4990   -4.9600 c3        1 MOL      0.013190
    148 N13         7.4720    0.3910   -5.5570 n4        1 MOL     -0.319650
    149 H67         7.3040   -0.6560   -1.5580 hn        1 MOL      0.221704
    150 H68         8.2370    1.5810   -0.1390 h1        1 MOL      0.113297
    151 H69         6.7660    2.9260   -1.6210 hc        1 MOL      0.024849
    152 H70         6.0170    1.3790   -2.1640 hc        1 MOL      0.024849
    153 H71         8.3070    0.7480   -2.9930 hc        1 MOL     -0.037878
    154 H72         8.9240    2.2120   -2.3190 hc        1 MOL     -0.037878
    155 H73         8.3830    2.7150   -4.8010 hc        1 MOL      0.107612
    156 H74         6.9900    3.3370   -3.8820 hc        1 MOL      0.107612
    157 H75         6.4100    2.1500   -5.7730 hx        1 MOL      0.092404
    158 H76         5.8170    1.1440   -4.4550 hx        1 MOL      0.092404
    159 H77         8.3660    0.6720   -5.9440 hn        1 MOL      0.297958
    160 H78         7.5660   -0.3300   -4.8530 hn        1 MOL      0.297958
    161 H79         6.9500   -0.0510   -6.3020 hn        1 MOL      0.297958
    162 N14         5.0410    1.3140    0.7270 n         1 MOL     -0.098638
    163 C49         4.0400    1.7720    1.7450 c3        1 MOL     -0.232628
    164 C50         4.4600    1.3790    3.1100 c         1 MOL      0.399492
    165 O22         4.5460    2.2900    3.9750 o         1 MOL     -0.529074
    166 C51         2.7800    1.0300    1.4040 c3        1 MOL      0.022452
    167 C52         1.9780    1.7560    0.3220 c3        1 MOL     -0.015266
    168 C53         0.7120    0.9800   -0.1630 c         1 MOL      0.531870
    169 O23         0.8980   -0.0280   -0.8110 o         1 MOL     -0.631679
    170 O24        -0.3850    1.3400    0.3210 o         1 MOL     -0.631679
    171 H80         4.8630    0.5220    0.1340 hn        1 MOL      0.058734
    172 H81         3.8090    2.8390    1.7430 h1        1 MOL      0.137353
    173 H82         2.0330    1.1460    2.1910 hc        1 MOL      0.112327
    174 H83         3.0550   -0.0080    1.2270 hc        1 MOL      0.112327
    175 H84         2.5960    1.9610   -0.5610 hc        1 MOL     -0.046555
    176 H85         1.6020    2.6820    0.7670 hc        1 MOL     -0.046555
    177 N15         4.8850    0.1400    3.2750 n         1 MOL      0.054016
    178 C54         5.2240   -0.5030    4.6150 c3        1 MOL     -0.409224
    179 H86         6.2020   -0.1540    4.9480 h1        1 MOL      0.148669
    180 H87         4.4710   -0.2260    5.3530 h1        1 MOL      0.148669
    181 H88         5.2440   -1.5870    4.5040 h1        1 MOL      0.148669
    182 H89         4.7200   -0.4860    2.5040 hn        1 MOL     -0.004804
    183 Ca1        -1.9600   -0.2050   -1.0940 Ca        1 MOL      1.769550
    184 O25        -0.6330    0.6640   -3.4200 oh        1 MOL     -0.826790
    185 H90         0.2100    1.0230   -3.7130 ho        1 MOL      0.377298
    186 H91        -1.2530    1.3770   -3.5500 ho        1 MOL      0.377298
    187 O26        -1.0440   -2.3630   -2.4850 oh        1 MOL     -0.826790
    188 H92        -0.7750   -2.0770   -3.3550 ho        1 MOL      0.377298
    189 H93        -1.4070   -3.2390   -2.6190 ho        1 MOL      0.377298
@<TRIPOS>BOND
     1    1    2 1   
     2    1    4 1   
     3    1    5 1   
     4    1    6 1   
     5    2    3 2   
     6    2    7 1   
     7    7    8 1   
     8    7   15 1   
     9    8    9 1   
    10    8   11 1   
    11    8   16 1   
    12    9   10 2   
    13    9   19 1   
    14   11   12 1   
    15   11   17 1   
    16   11   18 1   
    17   12   13 1   
    18   12   14 1   
    19   19   20 1   
    20   19   28 1   
    21   20   21 1   
    22   20   23 1   
    23   20   29 1   
    24   21   22 2   
    25   21   41 1   
    26   23   24 1   
    27   23   30 1   
    28   23   31 1   
    29   24   25 1   
    30   24   32 1   
    31   24   33 1   
    32   25   26 1   
    33   25   34 1   
    34   25   35 1   
    35   26   27 1   
    36   26   36 1   
    37   26   37 1   
    38   27   38 1   
    39   27   39 1   
    40   27   40 1   
    41   41   42 1   
    42   41   49 1   
    43   42   43 1   
    44   42   45 1   
    45   42   50 1   
    46   43   44 2   
    47   43   53 1   
    48   45   46 1   
    49   45   51 1   
    50   45   52 1   
    51   46   47 1   
    52   46   48 1   
    53   53   54 1   
    54   53   57 1   
    55   54   55 1   
    56   54   58 1   
    57   54   59 1   
    58   55   56 2   
    59   55   60 1   
    60   60   61 1   
    61   60   68 1   
    62   61   62 1   
    63   61   64 1   
    64   61   69 1   
    65   62   63 2   
    66   62   72 1   
    67   64   65 1   
    68   64   70 1   
    69   64   71 1   
    70   65   66 1   
    71   65   67 1   
    72   72   73 1   
    73   72   76 1   
    74   73   74 1   
    75   73   77 1   
    76   73   78 1   
    77   74   75 2   
    78   74   79 1   
    79   79   80 1   
    80   79   86 1   
    81   80   81 1   
    82   80   83 1   
    83   80   87 1   
    84   81   82 2   
    85   81   93 1   
    86   83   84 1   
    87   83   85 1   
    88   83   88 1   
    89   84   90 1   
    90   84   91 1   
    91   84   92 1   
    92   85   89 1   
    93   93   94 1   
    94   93  101 1   
    95   94   95 1   
    96   94   97 1   
    97   94  102 1   
    98   95   96 2   
    99   95  112 1   
   100   97   98 1   
   101   97   99 1   
   102   97  103 1   
   103   98  100 1   
   104   98  104 1   
   105   98  105 1   
   106   99  106 1   
   107   99  107 1   
   108   99  108 1   
   109  100  109 1   
   110  100  110 1   
   111  100  111 1   
   112  112  113 1   
   113  112  119 1   
   114  113  114 1   
   115  113  116 1   
   116  113  120 1   
   117  114  115 2   
   118  114  126 1   
   119  116  117 1   
   120  116  118 1   
   121  116  121 1   
   122  117  123 1   
   123  117  124 1   
   124  117  125 1   
   125  118  122 1   
   126  126  127 1   
   127  126  133 1   
   128  127  128 1   
   129  127  130 1   
   130  127  134 1   
   131  128  129 2   
   132  128  140 1   
   133  130  131 1   
   134  130  132 1   
   135  130  135 1   
   136  131  137 1   
   137  131  138 1   
   138  131  139 1   
   139  132  136 1   
   140  140  141 1   
   141  140  149 1   
   142  141  142 1   
   143  141  144 1   
   144  141  150 1   
   145  142  143 2   
   146  142  162 1   
   147  144  145 1   
   148  144  151 1   
   149  144  152 1   
   150  145  146 1   
   151  145  153 1   
   152  145  154 1   
   153  146  147 1   
   154  146  155 1   
   155  146  156 1   
   156  147  148 1   
   157  147  157 1   
   158  147  158 1   
   159  148  159 1   
   160  148  160 1   
   161  148  161 1   
   162  162  163 1   
   163  162  171 1   
   164  163  164 1   
   165  163  166 1   
   166  163  172 1   
   167  164  165 2   
   168  164  177 1   
   169  166  167 1   
   170  166  173 1   
   171  166  174 1   
   172  167  168 1   
   173  167  175 1   
   174  167  176 1   
   175  168  169 1   
   176  168  170 1   
   177  177  178 1   
   178  177  182 1   
   179  178  179 1   
   180  178  180 1   
   181  178  181 1   
   182  184  185 1   
   183  184  186 1   
   184  187  188 1   
   185  187  189 1   
@<TRIPOS>SUBSTRUCTURE
     1 MOL         1 TEMP              0 ****  ****    0 ROOT
