@<TRIPOS>MOLECULE
MOL
  189   185     1     0     0
SMALL
resp


@<TRIPOS>ATOM
      1 C1         -0.4730    2.8120   -4.9230 c3        1 MOL     -0.331702
      2 C2          0.2770    2.5500   -3.6140 c         1 MOL      0.570832
      3 O1         -0.2540    2.7750   -2.4860 o         1 MOL     -0.533444
      4 H1          0.0880    2.3850   -5.7540 hc        1 MOL      0.094290
      5 H2         -1.4600    2.3490   -4.8760 hc        1 MOL      0.094290
      6 H3         -0.5810    3.8860   -5.0720 hc        1 MOL      0.094290
      7 N1          1.4820    1.9460   -3.5990 n         1 MOL     -0.519876
      8 C3          2.3840    1.6410   -2.4190 c3        1 MOL      0.168067
      9 C4          2.9830    2.9500   -1.8370 c         1 MOL      0.520565
     10 O2          4.2300    3.0670   -1.8120 o         1 MOL     -0.432505
     11 C5          3.4240    0.5350   -2.7870 c3        1 MOL     -0.141734
     12 C6          4.1740   -0.0800   -1.5490 c         1 MOL      0.599182
     13 O3          5.1970   -0.8690   -1.7020 o         1 MOL     -0.627741
     14 O4          3.6850    0.1560   -0.4610 o         1 MOL     -0.627741
     15 H4          1.7400    1.6710   -4.5350 hn        1 MOL      0.298461
     16 H5          1.7290    1.2240   -1.6430 h1        1 MOL      0.045892
     17 H6          4.1730    0.9420   -3.4620 hc        1 MOL      0.041266
     18 H7          2.9640   -0.2880   -3.3530 hc        1 MOL      0.041266
     19 N2          2.1390    3.9820   -1.5440 n         1 MOL     -0.549380
     20 C7          2.6130    5.2510   -1.0360 c3        1 MOL      0.002250
     21 C8          3.5660    5.1440    0.1870 c         1 MOL      0.483956
     22 O5          4.5210    6.0000    0.2520 o         1 MOL     -0.555416
     23 C9          1.4360    6.1780   -0.7200 c3        1 MOL     -0.273372
     24 C10         0.6100    6.5150   -2.0150 c3        1 MOL      0.474162
     25 C11        -0.4060    7.6020   -1.7310 c3        1 MOL     -0.063614
     26 C12        -1.5110    7.7350   -2.8380 c3        1 MOL      0.055194
     27 N3         -0.8300    7.8250   -4.1710 n4        1 MOL     -0.384640
     28 H8          1.1360    3.8970   -1.5670 hn        1 MOL      0.319864
     29 H9          3.2480    5.7490   -1.7680 h1        1 MOL      0.075681
     30 H10         1.8900    7.1040   -0.3710 hc        1 MOL      0.082794
     31 H11         0.9150    5.7750    0.1540 hc        1 MOL      0.082794
     32 H12         0.1660    5.6190   -2.4430 hc        1 MOL     -0.121569
     33 H13         1.2690    7.0100   -2.7320 hc        1 MOL     -0.121569
     34 H14         0.1280    8.5480   -1.5760 hc        1 MOL      0.022496
     35 H15        -0.9550    7.3250   -0.8320 hc        1 MOL      0.022496
     36 H16        -2.1140    8.6170   -2.6480 hx        1 MOL      0.080953
     37 H17        -2.1440    6.8510   -2.8080 hx        1 MOL      0.080953
     38 H18        -0.5460    6.9730   -4.6360 hn        1 MOL      0.326082
     39 H19        -1.5360    8.1720   -4.8070 hn        1 MOL      0.326082
     40 H20        -0.0680    8.4820   -4.0950 hn        1 MOL      0.326082
     41 N4          3.3370    4.1690    1.1010 n         1 MOL     -0.337795
     42 C13         4.2480    4.1620    2.3260 c3        1 MOL      0.064358
     43 C14         5.4550    3.3220    2.0430 c         1 MOL      0.481573
     44 O6          6.4350    3.5680    2.7520 o         1 MOL     -0.530008
     45 C15         3.5220    3.6730    3.6400 c3        1 MOL     -0.437681
     46 C16         2.5250    2.4380    3.3910 c         1 MOL      0.735024
     47 O7          1.4260    2.3530    4.0240 o         1 MOL     -0.687577
     48 O8          2.8090    1.6640    2.4380 o         1 MOL     -0.687577
     49 H21         2.6800    3.4220    0.9470 hn        1 MOL      0.338324
     50 H22         4.6080    5.1640    2.5570 h1        1 MOL      0.102519
     51 H23         3.0720    4.5460    4.1080 hc        1 MOL      0.121828
     52 H24         4.2920    3.3250    4.3340 hc        1 MOL      0.121828
     53 N5          5.3810    2.3920    1.0230 n         1 MOL     -0.009445
     54 C17         6.5720    1.8440    0.4230 c3        1 MOL     -0.176380
     55 C18         7.2240    0.6800    1.1880 c         1 MOL      0.654221
     56 O9          8.2930    0.8160    1.7760 o         1 MOL     -0.580534
     57 H25         4.5540    2.3460    0.4510 hn        1 MOL     -0.022883
     58 H26         7.3580    2.5950    0.4190 h1        1 MOL      0.072106
     59 H27         6.3140    1.5220   -0.5920 h1        1 MOL      0.072106
     60 N6          6.5430   -0.4420    1.2170 n         1 MOL     -0.521441
     61 C19         6.8540   -1.6120    2.0200 c3        1 MOL      0.218404
     62 C20         7.0120   -2.9350    1.2220 c         1 MOL      0.315112
     63 O10         7.3090   -3.9450    1.7920 o         1 MOL     -0.516178
     64 C21         5.7830   -1.8540    3.1360 c3        1 MOL     -0.274524
     65 C22         4.3820   -2.0400    2.6050 c         1 MOL      0.981477
     66 O11         4.1490   -2.6450    1.5720 o         1 MOL     -0.833958
     67 O12         3.4630   -1.4750    3.1870 o         1 MOL     -0.833958
     68 H28         5.6990   -0.4090    0.6560 hn        1 MOL      0.134004
     69 H29         7.7990   -1.4130    2.5360 h1        1 MOL      0.074701
     70 H30         5.8380   -0.9920    3.7970 hc        1 MOL      0.066489
     71 H31         6.1150   -2.7170    3.7000 hc        1 MOL      0.066489
     72 N7          6.7090   -2.8640   -0.0590 n         1 MOL     -0.148899
     73 C23         6.9110   -3.9980   -0.9920 c3        1 MOL     -0.309144
     74 C24         5.5390   -4.6440   -1.3200 c         1 MOL      0.622987
     75 O13         5.5220   -5.6800   -1.9360 o         1 MOL     -0.577763
     76 H32         6.2630   -2.0300   -0.4020 hn        1 MOL      0.207808
     77 H33         7.6050   -4.6580   -0.4670 h1        1 MOL      0.139894
     78 H34         7.2960   -3.5590   -1.9100 h1        1 MOL      0.139894
     79 N8          4.4100   -4.0610   -0.8950 n         1 MOL     -0.370861
     80 C25         3.0370   -4.5200   -1.2320 c3        1 MOL     -0.153431
     81 C26         2.0190   -3.4150   -1.2390 c         1 MOL      0.541640
     82 O14         2.2430   -2.3410   -0.6950 o         1 MOL     -0.539025
     83 C27         2.6020   -5.5460   -0.1540 c3        1 MOL      0.476370
     84 C28         3.3710   -6.8210   -0.0960 c3        1 MOL     -0.612440
     85 O15         2.6910   -4.9460    1.1650 oh        1 MOL     -0.620563
     86 H35         4.5140   -3.1920   -0.3810 hn        1 MOL      0.373328
     87 H36         2.9300   -4.9640   -2.2260 h1        1 MOL      0.095126
     88 H37         1.5870   -5.8390   -0.4230 h1        1 MOL      0.001703
     89 H38         3.3530   -4.2620    1.0290 ho        1 MOL      0.418110
     90 H39         4.3150   -6.6130    0.4230 hc        1 MOL      0.160638
     91 H40         2.8110   -7.5210    0.5080 hc        1 MOL      0.160638
     92 H41         3.6160   -7.1380   -1.1130 hc        1 MOL      0.160638
     93 N9          0.8580   -3.7350   -1.7210 n         1 MOL     -0.468924
     94 C29        -0.3800   -2.9300   -1.8920 c3        1 MOL     -0.041710
     95 C30        -1.5680   -3.5880   -1.0350 c         1 MOL      0.477843
     96 O16        -1.9330   -4.7930   -1.1950 o         1 MOL     -0.558967
     97 C31        -0.8480   -2.8350   -3.3500 c3        1 MOL      0.351980
     98 C32         0.2380   -2.6980   -4.4520 c3        1 MOL      0.141582
     99 C33        -1.7790   -1.5790   -3.3640 c3        1 MOL     -0.559254
    100 C34        -0.3670   -2.5420   -5.8530 c3        1 MOL     -0.507663
    101 H42         0.7830   -4.6400   -2.1660 hn        1 MOL      0.245242
    102 H43        -0.2430   -1.9380   -1.4530 h1        1 MOL      0.027792
    103 H44        -1.4640   -3.7090   -3.5220 hc        1 MOL     -0.048530
    104 H45         0.8960   -3.5680   -4.4320 hc        1 MOL      0.001407
    105 H46         0.8910   -1.8370   -4.2610 hc        1 MOL      0.001407
    106 H47        -2.5260   -1.6540   -2.5710 hc        1 MOL      0.106296
    107 H48        -1.1230   -0.7200   -3.2050 hc        1 MOL      0.106296
    108 H49        -2.3410   -1.5560   -4.2890 hc        1 MOL      0.106296
    109 H50         0.4510   -2.8030   -6.5190 hc        1 MOL      0.127888
    110 H51        -1.2000   -3.2310   -5.9400 hc        1 MOL      0.127888
    111 H52        -0.7060   -1.5080   -5.8900 hc        1 MOL      0.127888
    112 N10        -2.1780   -2.7840   -0.1440 n         1 MOL     -0.234533
    113 C35        -3.4930   -3.1220    0.5130 c3        1 MOL      0.004278
    114 C36        -4.7800   -2.7560   -0.2330 c         1 MOL      0.360716
    115 O17        -4.8150   -1.8070   -1.0480 o         1 MOL     -0.303498
    116 C37        -3.5490   -2.6610    1.9510 c3        1 MOL      0.172279
    117 C38        -2.3580   -2.8460    2.9090 c3        1 MOL     -0.417292
    118 O18        -3.7310   -1.2780    1.9460 oh        1 MOL     -0.502571
    119 H53        -1.7810   -1.8590   -0.0140 hn        1 MOL      0.379276
    120 H54        -3.4270   -4.2100    0.5930 h1        1 MOL      0.072548
    121 H55        -4.4710   -3.0980    2.3330 h1        1 MOL      0.021526
    122 H56        -2.8830   -0.8230    1.9440 ho        1 MOL      0.364617
    123 H57        -2.4120   -2.3660    3.8870 hc        1 MOL      0.117351
    124 H58        -2.1870   -3.9060    3.1070 hc        1 MOL      0.117351
    125 H59        -1.4370   -2.5360    2.4140 hc        1 MOL      0.117351
    126 N11        -5.8860   -3.4630    0.1200 n         1 MOL     -0.351563
    127 C39        -7.2660   -3.0160   -0.3010 c3        1 MOL     -0.244045
    128 C40        -7.5640   -1.5170   -0.1670 c         1 MOL      0.319423
    129 O19        -8.0970   -0.9020   -1.0670 o         1 MOL     -0.448433
    130 C41        -8.3560   -3.7400    0.5500 c3        1 MOL      0.480760
    131 C42        -9.7560   -3.4970    0.0340 c3        1 MOL     -0.423727
    132 O20        -8.1520   -5.1230    0.5600 oh        1 MOL     -0.569408
    133 H60        -5.7360   -4.2540    0.7330 hn        1 MOL      0.258628
    134 H61        -7.4230   -3.2740   -1.3460 h1        1 MOL      0.179331
    135 H62        -8.3770   -3.3830    1.5760 h1        1 MOL     -0.054002
    136 H63        -7.2540   -5.1980    0.8760 ho        1 MOL      0.352518
    137 H64        -9.8230   -4.0800   -0.8870 hc        1 MOL      0.125460
    138 H65       -10.4270   -3.8990    0.7860 hc        1 MOL      0.125460
    139 H66        -9.9600   -2.4530   -0.2340 hc        1 MOL      0.125460
    140 N12        -7.1830   -0.9580    0.9570 n         1 MOL     -0.175006
    141 C43        -7.1800    0.4900    1.2710 c3        1 MOL     -0.246258
    142 C44        -6.3550    1.2800    0.2250 c         1 MOL      0.422272
    143 O21        -6.7550    2.3850   -0.1610 o         1 MOL     -0.516173
    144 C45        -6.8800    0.7730    2.7510 c3        1 MOL      0.039012
    145 C46        -7.1890    2.1680    3.2640 c3        1 MOL     -0.051812
    146 C47        -7.1920    2.1690    4.8250 c3        1 MOL     -0.054331
    147 C48        -7.3340    3.5890    5.3140 c3        1 MOL      0.175737
    148 N13        -6.8240    3.7490    6.6630 n4        1 MOL     -0.371990
    149 H67        -6.8120   -1.6520    1.5930 hn        1 MOL      0.208759
    150 H68        -8.2290    0.7370    1.1470 h1        1 MOL      0.166508
    151 H69        -5.8800    0.4070    2.9760 hc        1 MOL      0.022220
    152 H70        -7.6020    0.1220    3.2470 hc        1 MOL      0.022220
    153 H71        -8.1440    2.4730    2.8360 hc        1 MOL      0.046168
    154 H72        -6.4440    2.9240    3.0190 hc        1 MOL      0.046168
    155 H73        -6.2130    1.7640    5.0770 hc        1 MOL      0.036103
    156 H74        -7.9610    1.5330    5.2510 hc        1 MOL      0.036103
    157 H75        -8.3500    3.9730    5.3090 hx        1 MOL      0.045914
    158 H76        -6.7530    4.2710    4.7020 hx        1 MOL      0.045914
    159 H77        -5.8370    3.5930    6.7820 hn        1 MOL      0.311553
    160 H78        -7.0040    4.7230    6.8580 hn        1 MOL      0.311553
    161 H79        -7.2970    3.0870    7.2550 hn        1 MOL      0.311553
    162 N14        -5.1210    0.8300   -0.1320 n         1 MOL      0.012680
    163 C49        -4.2080    1.6140   -1.0110 c3        1 MOL     -0.289787
    164 C50        -4.7790    1.6480   -2.4060 c         1 MOL      0.556905
    165 O22        -4.9150    2.7160   -2.9690 o         1 MOL     -0.573531
    166 C51        -2.7510    1.1620   -0.8520 c3        1 MOL      0.071003
    167 C52        -2.1050    1.2410    0.5610 c3        1 MOL     -0.156948
    168 C53        -0.6970    0.7160    0.5040 c         1 MOL      0.904414
    169 O23        -0.4740   -0.5240    0.4790 o         1 MOL     -0.792308
    170 O24         0.2800    1.4470    0.6620 o         1 MOL     -0.792308
    171 H80        -4.7870   -0.0140    0.3090 hn        1 MOL      0.064836
    172 H81        -4.1220    2.6540   -0.6960 h1        1 MOL      0.117976
    173 H82        -2.2130    1.8450   -1.5180 hc        1 MOL      0.023489
    174 H83        -2.6430    0.1540   -1.2590 hc        1 MOL      0.023489
    175 H84        -2.6160    0.5070    1.1870 hc        1 MOL      0.016028
    176 H85        -2.1620    2.1940    1.0800 hc        1 MOL      0.016028
    177 N15        -5.2870    0.5400   -2.9520 n         1 MOL     -0.171092
    178 C54        -6.1360    0.4820   -4.1540 c3        1 MOL     -0.247446
    179 H86        -5.5060    0.4410   -5.0430 h1        1 MOL      0.103723
    180 H87        -6.7640   -0.4080   -4.1140 h1        1 MOL      0.103723
    181 H88        -6.7660    1.3710   -4.1980 h1        1 MOL      0.103723
    182 H89        -5.1440   -0.2810   -2.3860 hn        1 MOL      0.173500
    183 Ca1         1.9700   -0.4800    1.2550 Ca        1 MOL      1.734297
    184 O25         0.2450   -0.1360    3.4330 oh        1 MOL     -0.852760
    185 H90        -0.1770   -0.5570    4.1850 ho        1 MOL      0.394428
    186 H91         0.6660    0.6400    3.7970 ho        1 MOL      0.394428
    187 O26         0.7710   -3.0730    1.7200 oh        1 MOL     -0.852760
    188 H92         1.3970   -3.8020    1.7070 ho        1 MOL      0.394428
    189 H93         0.4400   -3.0720    2.6210 ho        1 MOL      0.394428
@<TRIPOS>BOND
     1    1    2 1   
     2    1    4 1   
     3    1    5 1   
     4    1    6 1   
     5    2    3 2   
     6    2    7 1   
     7    7    8 1   
     8    7   15 1   
     9    8    9 1   
    10    8   11 1   
    11    8   16 1   
    12    9   10 2   
    13    9   19 1   
    14   11   12 1   
    15   11   17 1   
    16   11   18 1   
    17   12   13 1   
    18   12   14 1   
    19   19   20 1   
    20   19   28 1   
    21   20   21 1   
    22   20   23 1   
    23   20   29 1   
    24   21   22 2   
    25   21   41 1   
    26   23   24 1   
    27   23   30 1   
    28   23   31 1   
    29   24   25 1   
    30   24   32 1   
    31   24   33 1   
    32   25   26 1   
    33   25   34 1   
    34   25   35 1   
    35   26   27 1   
    36   26   36 1   
    37   26   37 1   
    38   27   38 1   
    39   27   39 1   
    40   27   40 1   
    41   41   42 1   
    42   41   49 1   
    43   42   43 1   
    44   42   45 1   
    45   42   50 1   
    46   43   44 2   
    47   43   53 1   
    48   45   46 1   
    49   45   51 1   
    50   45   52 1   
    51   46   47 1   
    52   46   48 1   
    53   53   54 1   
    54   53   57 1   
    55   54   55 1   
    56   54   58 1   
    57   54   59 1   
    58   55   56 2   
    59   55   60 1   
    60   60   61 1   
    61   60   68 1   
    62   61   62 1   
    63   61   64 1   
    64   61   69 1   
    65   62   63 2   
    66   62   72 1   
    67   64   65 1   
    68   64   70 1   
    69   64   71 1   
    70   65   66 1   
    71   65   67 1   
    72   72   73 1   
    73   72   76 1   
    74   73   74 1   
    75   73   77 1   
    76   73   78 1   
    77   74   75 2   
    78   74   79 1   
    79   79   80 1   
    80   79   86 1   
    81   80   81 1   
    82   80   83 1   
    83   80   87 1   
    84   81   82 2   
    85   81   93 1   
    86   83   84 1   
    87   83   85 1   
    88   83   88 1   
    89   84   90 1   
    90   84   91 1   
    91   84   92 1   
    92   85   89 1   
    93   93   94 1   
    94   93  101 1   
    95   94   95 1   
    96   94   97 1   
    97   94  102 1   
    98   95   96 2   
    99   95  112 1   
   100   97   98 1   
   101   97   99 1   
   102   97  103 1   
   103   98  100 1   
   104   98  104 1   
   105   98  105 1   
   106   99  106 1   
   107   99  107 1   
   108   99  108 1   
   109  100  109 1   
   110  100  110 1   
   111  100  111 1   
   112  112  113 1   
   113  112  119 1   
   114  113  114 1   
   115  113  116 1   
   116  113  120 1   
   117  114  115 2   
   118  114  126 1   
   119  116  117 1   
   120  116  118 1   
   121  116  121 1   
   122  117  123 1   
   123  117  124 1   
   124  117  125 1   
   125  118  122 1   
   126  126  127 1   
   127  126  133 1   
   128  127  128 1   
   129  127  130 1   
   130  127  134 1   
   131  128  129 2   
   132  128  140 1   
   133  130  131 1   
   134  130  132 1   
   135  130  135 1   
   136  131  137 1   
   137  131  138 1   
   138  131  139 1   
   139  132  136 1   
   140  140  141 1   
   141  140  149 1   
   142  141  142 1   
   143  141  144 1   
   144  141  150 1   
   145  142  143 2   
   146  142  162 1   
   147  144  145 1   
   148  144  151 1   
   149  144  152 1   
   150  145  146 1   
   151  145  153 1   
   152  145  154 1   
   153  146  147 1   
   154  146  155 1   
   155  146  156 1   
   156  147  148 1   
   157  147  157 1   
   158  147  158 1   
   159  148  159 1   
   160  148  160 1   
   161  148  161 1   
   162  162  163 1   
   163  162  171 1   
   164  163  164 1   
   165  163  166 1   
   166  163  172 1   
   167  164  165 2   
   168  164  177 1   
   169  166  167 1   
   170  166  173 1   
   171  166  174 1   
   172  167  168 1   
   173  167  175 1   
   174  167  176 1   
   175  168  169 1   
   176  168  170 1   
   177  177  178 1   
   178  177  182 1   
   179  178  179 1   
   180  178  180 1   
   181  178  181 1   
   182  184  185 1   
   183  184  186 1   
   184  187  188 1   
   185  187  189 1   
@<TRIPOS>SUBSTRUCTURE
     1 MOL         1 TEMP              0 ****  ****    0 ROOT
