@<TRIPOS>MOLECULE
MOL
  189   185     1     0     0
SMALL
resp


@<TRIPOS>ATOM
      1 C1         -0.0760    2.1390    5.8020 c3        1 MOL     -0.320647
      2 C2         -0.4970    2.2350    4.2820 c         1 MOL      0.660264
      3 O1          0.2810    2.5730    3.3970 o         1 MOL     -0.549082
      4 H1          0.6180    1.3100    5.9350 hc        1 MOL      0.077369
      5 H2          0.4060    3.0680    6.1050 hc        1 MOL      0.077369
      6 H3         -0.9620    1.9720    6.4150 hc        1 MOL      0.077369
      7 N1         -1.8120    2.1080    4.1450 n         1 MOL     -0.535224
      8 C3         -2.3540    1.7770    2.8610 c3        1 MOL      0.148334
      9 C4         -2.6810    3.0480    2.0550 c         1 MOL      0.457383
     10 O2         -3.6040    3.7700    2.4380 o         1 MOL     -0.559603
     11 C5         -3.6120    0.9000    3.0140 c3        1 MOL     -0.418152
     12 C6         -4.2170    0.4420    1.6210 c         1 MOL      0.831710
     13 O3         -3.4820    0.4830    0.5510 o         1 MOL     -0.711183
     14 O4         -5.4150    0.0220    1.5560 o         1 MOL     -0.711183
     15 H4         -2.3200    1.7280    4.9290 hn        1 MOL      0.330892
     16 H5         -1.6020    1.2220    2.2950 h1        1 MOL      0.024922
     17 H6         -4.3810    1.4890    3.5210 hc        1 MOL      0.112061
     18 H7         -3.4130   -0.0380    3.5330 hc        1 MOL      0.112061
     19 N2         -2.0020    3.3350    0.9350 n         1 MOL     -0.071325
     20 C7         -1.9880    4.6740    0.3040 c3        1 MOL      0.025098
     21 C8         -3.1680    4.7960   -0.6890 c         1 MOL      0.376137
     22 O5         -3.8220    5.8260   -0.7600 o         1 MOL     -0.576138
     23 C9         -0.6130    5.0750   -0.2780 c3        1 MOL      0.030590
     24 C10         0.4060    5.6480    0.7650 c3        1 MOL      0.062861
     25 C11         0.0370    6.9270    1.5700 c3        1 MOL     -0.315998
     26 C12        -0.3150    8.0980    0.6520 c3        1 MOL      0.042457
     27 N3          0.8510    8.6410   -0.1090 n4        1 MOL     -0.417453
     28 H8         -1.3280    2.6950    0.5350 hn        1 MOL      0.104744
     29 H9         -2.2080    5.3840    1.1090 h1        1 MOL      0.046232
     30 H10        -0.7170    5.9210   -0.9650 hc        1 MOL     -0.018451
     31 H11        -0.2090    4.2720   -0.8990 hc        1 MOL     -0.018451
     32 H12         1.3960    5.7880    0.3280 hc        1 MOL      0.041675
     33 H13         0.5110    4.8760    1.5370 hc        1 MOL      0.041675
     34 H14         0.9530    7.2300    2.0740 hc        1 MOL      0.124499
     35 H15        -0.7870    6.7200    2.2590 hc        1 MOL      0.124499
     36 H16        -0.7360    8.8800    1.2860 hx        1 MOL      0.100062
     37 H17        -1.1220    7.8400   -0.0330 hx        1 MOL      0.100062
     38 H18         1.2110    8.0490   -0.8350 hn        1 MOL      0.336246
     39 H19         0.5090    9.4730   -0.5760 hn        1 MOL      0.336246
     40 H20         1.5670    8.9130    0.5500 hn        1 MOL      0.336246
     41 N4         -3.4040    3.7510   -1.4260 n         1 MOL     -0.216541
     42 C13        -4.4300    3.7120   -2.4880 c3        1 MOL      0.004397
     43 C14        -5.7490    3.0640   -2.0020 c         1 MOL      0.401390
     44 O6         -6.6540    2.8960   -2.8100 o         1 MOL     -0.507882
     45 C15        -3.8400    3.1160   -3.8010 c3        1 MOL     -0.273582
     46 C16        -3.0330    1.8360   -3.5690 c         1 MOL      0.739725
     47 O7         -2.4170    1.3830   -4.5640 o         1 MOL     -0.691750
     48 O8         -2.9350    1.2330   -2.4750 o         1 MOL     -0.691750
     49 H21        -2.7950    2.9490   -1.3170 hn        1 MOL      0.237602
     50 H22        -4.6430    4.7470   -2.7540 h1        1 MOL      0.102764
     51 H23        -3.1680    3.8460   -4.2500 hc        1 MOL      0.085219
     52 H24        -4.6870    2.9980   -4.4670 hc        1 MOL      0.085219
     53 N5         -5.8930    2.6610   -0.7020 n         1 MOL     -0.231958
     54 C17        -7.0550    2.0430   -0.1870 c3        1 MOL     -0.216851
     55 C18        -7.4670    0.6930   -0.7460 c         1 MOL      0.577291
     56 O9         -8.6210    0.3090   -0.5980 o         1 MOL     -0.596922
     57 H25        -5.1010    2.8650   -0.1080 hn        1 MOL      0.239566
     58 H26        -7.9410    2.6430   -0.3860 h1        1 MOL      0.105978
     59 H27        -6.9700    1.9590    0.8920 h1        1 MOL      0.105978
     60 N6         -6.5370   -0.0270   -1.3270 n         1 MOL     -0.168294
     61 C19        -6.8470   -1.2090   -2.0460 c3        1 MOL     -0.148357
     62 C20        -7.1300   -2.4500   -1.1890 c         1 MOL      0.487693
     63 O10        -7.5850   -3.4300   -1.7290 o         1 MOL     -0.539719
     64 C21        -5.7930   -1.5270   -3.0920 c3        1 MOL     -0.141675
     65 C22        -4.3960   -1.8850   -2.6170 c         1 MOL      0.711092
     66 O11        -3.4290   -1.9450   -3.4320 o         1 MOL     -0.681644
     67 O12        -4.2710   -2.1780   -1.4030 o         1 MOL     -0.681644
     68 H28        -5.5840    0.2810   -1.2110 hn        1 MOL      0.160015
     69 H29        -7.7700   -1.0300   -2.5970 h1        1 MOL      0.122475
     70 H30        -5.7290   -0.8340   -3.9250 hc        1 MOL      0.066626
     71 H31        -6.1550   -2.4020   -3.6290 hc        1 MOL      0.066626
     72 N7         -6.7700   -2.4030    0.1210 n         1 MOL     -0.240237
     73 C23        -6.9950   -3.4630    1.1310 c3        1 MOL     -0.152991
     74 C24        -5.6880   -4.2770    1.3210 c         1 MOL      0.567758
     75 O13        -5.6920   -5.2420    2.0240 o         1 MOL     -0.586844
     76 H32        -6.3840   -1.5260    0.4410 hn        1 MOL      0.280420
     77 H33        -7.6000   -4.2070    0.6270 h1        1 MOL      0.099619
     78 H34        -7.4770   -3.1040    2.0370 h1        1 MOL      0.099619
     79 N8         -4.5190   -3.8750    0.7890 n         1 MOL     -0.238264
     80 C25        -3.1590   -4.5070    1.0170 c3        1 MOL     -0.108883
     81 C26        -1.9760   -3.5000    1.0940 c         1 MOL      0.686163
     82 O14        -2.1410   -2.3640    0.7240 o         1 MOL     -0.688007
     83 C27        -2.8050   -5.3860   -0.1880 c3        1 MOL      0.318703
     84 C28        -3.6210   -6.7300   -0.2910 c3        1 MOL     -0.381241
     85 O15        -2.8540   -4.5880   -1.3900 oh        1 MOL     -0.595248
     86 H35        -4.5330   -2.9710    0.3450 hn        1 MOL      0.169020
     87 H36        -3.1930   -5.2110    1.8450 h1        1 MOL      0.077516
     88 H37        -1.7590   -5.6880   -0.0610 h1        1 MOL      0.039935
     89 H38        -3.6080   -4.0010   -1.3230 ho        1 MOL      0.390710
     90 H39        -3.3850   -7.4560    0.4910 hc        1 MOL      0.100668
     91 H40        -4.6940   -6.6220   -0.3930 hc        1 MOL      0.100668
     92 H41        -3.3730   -7.2950   -1.1860 hc        1 MOL      0.100668
     93 N9         -0.8050   -3.9400    1.5330 n         1 MOL     -0.586171
     94 C29         0.3210   -2.9960    1.6970 c3        1 MOL      0.059707
     95 C30         1.5100   -3.5040    0.8000 c         1 MOL      0.485665
     96 O16         1.8100   -4.7110    0.8230 o         1 MOL     -0.551885
     97 C31         0.6650   -2.9440    3.2130 c3        1 MOL      0.115173
     98 C32        -0.5810   -2.3770    3.9250 c3        1 MOL      0.076519
     99 C33         2.0140   -2.1680    3.4250 c3        1 MOL     -0.123351
    100 C34        -0.4880   -2.5440    5.4200 c3        1 MOL     -0.232441
    101 H42        -0.7730   -4.8980    1.8490 hn        1 MOL      0.296715
    102 H43         0.1570   -1.9900    1.3140 h1        1 MOL     -0.034467
    103 H44         0.9160   -3.8870    3.6850 hc        1 MOL      0.016896
    104 H45        -1.5000   -2.9030    3.6770 hc        1 MOL      0.017613
    105 H46        -0.7010   -1.3220    3.6720 hc        1 MOL      0.017613
    106 H47         2.8520   -2.7570    3.0420 hc        1 MOL     -0.000636
    107 H48         1.9160   -1.2890    2.7760 hc        1 MOL     -0.000636
    108 H49         2.2320   -1.8610    4.4460 hc        1 MOL     -0.000636
    109 H50        -0.4770   -3.5830    5.7450 hc        1 MOL      0.049728
    110 H51         0.4390   -2.1100    5.8020 hc        1 MOL      0.049728
    111 H52        -1.3410   -2.0160    5.8500 hc        1 MOL      0.049728
    112 N10         2.2050   -2.5570    0.1360 n         1 MOL     -0.469697
    113 C35         3.4510   -2.7910   -0.6120 c3        1 MOL     -0.000525
    114 C36         4.6470   -2.5450    0.2480 c         1 MOL      0.480361
    115 O17         4.5790   -1.8210    1.2810 o         1 MOL     -0.386007
    116 C37         3.6160   -2.0220   -1.9280 c3        1 MOL     -0.001279
    117 C38         2.3170   -2.0470   -2.6870 c3        1 MOL     -0.140160
    118 O18         4.1050   -0.6760   -1.7640 oh        1 MOL     -0.318151
    119 H53         1.8750   -1.6010    0.1450 hn        1 MOL      0.925471
    120 H54         3.4710   -3.8730   -0.7730 h1        1 MOL      0.071465
    121 H55         4.4600   -2.5400   -2.3870 h1        1 MOL      0.026742
    122 H56         3.9480   -0.2240   -2.5920 ho        1 MOL      0.361021
    123 H57         1.6310   -1.2940   -2.2850 hc        1 MOL      0.033709
    124 H58         2.5460   -1.8360   -3.7320 hc        1 MOL      0.033709
    125 H59         1.8260   -3.0200   -2.6450 hc        1 MOL      0.033709
    126 N11         5.7820   -3.1900   -0.1240 n         1 MOL     -0.482097
    127 C39         7.1830   -2.6920    0.2450 c3        1 MOL     -0.019681
    128 C40         7.3640   -1.1610    0.2160 c         1 MOL      0.186781
    129 O19         7.8220   -0.6260    1.2150 o         1 MOL     -0.443672
    130 C41         8.3170   -3.3980   -0.5710 c3        1 MOL      0.272824
    131 C42         8.4050   -4.9480   -0.3630 c3        1 MOL     -0.419882
    132 O20         8.0210   -3.1860   -1.9420 oh        1 MOL     -0.596655
    133 H60         5.6950   -3.8410   -0.8940 hn        1 MOL      0.321188
    134 H61         7.4040   -3.0590    1.2520 h1        1 MOL      0.134496
    135 H62         9.3060   -3.0270   -0.3100 h1        1 MOL      0.051376
    136 H63         8.7710   -3.3340   -2.5250 ho        1 MOL      0.389333
    137 H64         7.6840   -5.4960   -0.9770 hc        1 MOL      0.123283
    138 H65         9.3830   -5.2930   -0.6980 hc        1 MOL      0.123283
    139 H66         8.4490   -5.1730    0.7070 hc        1 MOL      0.123283
    140 N12         6.9970   -0.4940   -0.9020 n         1 MOL      0.048311
    141 C43         7.1400    1.0180   -1.0660 c3        1 MOL     -0.051572
    142 C44         6.1360    1.7900   -0.0530 c         1 MOL      0.307811
    143 O21         6.5490    2.8190    0.4600 o         1 MOL     -0.512746
    144 C45         6.7870    1.2700   -2.5330 c3        1 MOL     -0.115934
    145 C46         7.6180    0.4550   -3.5540 c3        1 MOL     -0.288034
    146 C47         9.1240    0.4560   -3.4040 c3        1 MOL      0.087029
    147 C48         9.7730    1.8170   -3.2100 c3        1 MOL      0.114238
    148 N13        11.2620    1.9070   -3.4180 n4        1 MOL     -0.305056
    149 H67         6.6680   -1.0340   -1.6940 hn        1 MOL      0.148686
    150 H68         8.1170    1.4450   -0.8760 h1        1 MOL      0.074685
    151 H69         6.9490    2.3410   -2.6210 hc        1 MOL      0.051765
    152 H70         5.7080    1.1340   -2.6310 hc        1 MOL      0.051765
    153 H71         7.4100    1.0350   -4.4610 hc        1 MOL      0.102715
    154 H72         7.2330   -0.5560   -3.6540 hc        1 MOL      0.102715
    155 H73         9.6660   -0.0010   -4.2230 hc        1 MOL      0.000496
    156 H74         9.3170   -0.1590   -2.5340 hc        1 MOL      0.000496
    157 H75         9.5180    2.3210   -2.2830 hx        1 MOL      0.067068
    158 H76         9.3660    2.4180   -4.0270 hx        1 MOL      0.067068
    159 H77        11.8040    1.7470   -2.5790 hn        1 MOL      0.275835
    160 H78        11.6680    1.3090   -4.1240 hn        1 MOL      0.275835
    161 H79        11.4960    2.8690   -3.6010 hn        1 MOL      0.275835
    162 N14         5.0060    1.2730    0.3760 n         1 MOL      0.222071
    163 C49         4.0950    1.9920    1.3180 c3        1 MOL     -0.267229
    164 C50         4.6550    1.8870    2.7220 c         1 MOL      0.560090
    165 O22         4.9270    2.9200    3.2930 o         1 MOL     -0.535836
    166 C51         2.6940    1.2870    1.2310 c3        1 MOL      0.451350
    167 C52         2.0240    1.5300   -0.0950 c3        1 MOL     -0.104907
    168 C53         0.6380    0.8890   -0.1350 c         1 MOL      0.638623
    169 O23         0.4200   -0.3010   -0.1660 o         1 MOL     -0.677945
    170 O24        -0.3840    1.5940   -0.3410 o         1 MOL     -0.677945
    171 H80         4.7540    0.3710   -0.0060 hn        1 MOL     -0.242637
    172 H81         3.9720    3.0040    0.9400 h1        1 MOL      0.097083
    173 H82         2.0680    1.7420    1.9950 hc        1 MOL     -0.167625
    174 H83         2.8060    0.2070    1.3870 hc        1 MOL     -0.167625
    175 H84         2.6920    1.0550   -0.8210 hc        1 MOL     -0.052546
    176 H85         2.0590    2.5950   -0.2940 hc        1 MOL     -0.052546
    177 N15         4.9590    0.6510    3.2070 n         1 MOL     -0.202058
    178 C54         5.6080    0.4450    4.5040 c3        1 MOL     -0.395729
    179 H86         6.0350   -0.5580    4.5410 h1        1 MOL      0.140865
    180 H87         6.4010    1.1810    4.6340 h1        1 MOL      0.140865
    181 H88         4.8730    0.5570    5.3010 h1        1 MOL      0.140865
    182 H89         4.8900   -0.1720    2.6230 hn        1 MOL      0.248457
    183 Ca1        -1.9020   -0.7220   -1.1670 Ca        1 MOL      1.696505
    184 O25        -0.5690   -0.0150   -3.4120 oh        1 MOL     -0.881063
    185 H90        -1.2020    0.5160   -3.8880 ho        1 MOL      0.401216
    186 H91         0.0760   -0.2500   -4.0850 ho        1 MOL      0.401216
    187 O26        -0.7270   -2.9150   -1.9990 oh        1 MOL     -0.881063
    188 H92        -0.3260   -2.9860   -2.8610 ho        1 MOL      0.401216
    189 H93        -1.3580   -3.6410   -1.9670 ho        1 MOL      0.401216
@<TRIPOS>BOND
     1    1    2 1   
     2    1    4 1   
     3    1    5 1   
     4    1    6 1   
     5    2    3 2   
     6    2    7 1   
     7    7    8 1   
     8    7   15 1   
     9    8    9 1   
    10    8   11 1   
    11    8   16 1   
    12    9   10 2   
    13    9   19 1   
    14   11   12 1   
    15   11   17 1   
    16   11   18 1   
    17   12   13 1   
    18   12   14 1   
    19   19   20 1   
    20   19   28 1   
    21   20   21 1   
    22   20   23 1   
    23   20   29 1   
    24   21   22 2   
    25   21   41 1   
    26   23   24 1   
    27   23   30 1   
    28   23   31 1   
    29   24   25 1   
    30   24   32 1   
    31   24   33 1   
    32   25   26 1   
    33   25   34 1   
    34   25   35 1   
    35   26   27 1   
    36   26   36 1   
    37   26   37 1   
    38   27   38 1   
    39   27   39 1   
    40   27   40 1   
    41   41   42 1   
    42   41   49 1   
    43   42   43 1   
    44   42   45 1   
    45   42   50 1   
    46   43   44 2   
    47   43   53 1   
    48   45   46 1   
    49   45   51 1   
    50   45   52 1   
    51   46   47 1   
    52   46   48 1   
    53   53   54 1   
    54   53   57 1   
    55   54   55 1   
    56   54   58 1   
    57   54   59 1   
    58   55   56 2   
    59   55   60 1   
    60   60   61 1   
    61   60   68 1   
    62   61   62 1   
    63   61   64 1   
    64   61   69 1   
    65   62   63 2   
    66   62   72 1   
    67   64   65 1   
    68   64   70 1   
    69   64   71 1   
    70   65   66 1   
    71   65   67 1   
    72   72   73 1   
    73   72   76 1   
    74   73   74 1   
    75   73   77 1   
    76   73   78 1   
    77   74   75 2   
    78   74   79 1   
    79   79   80 1   
    80   79   86 1   
    81   80   81 1   
    82   80   83 1   
    83   80   87 1   
    84   81   82 2   
    85   81   93 1   
    86   83   84 1   
    87   83   85 1   
    88   83   88 1   
    89   84   90 1   
    90   84   91 1   
    91   84   92 1   
    92   85   89 1   
    93   93   94 1   
    94   93  101 1   
    95   94   95 1   
    96   94   97 1   
    97   94  102 1   
    98   95   96 2   
    99   95  112 1   
   100   97   98 1   
   101   97   99 1   
   102   97  103 1   
   103   98  100 1   
   104   98  104 1   
   105   98  105 1   
   106   99  106 1   
   107   99  107 1   
   108   99  108 1   
   109  100  109 1   
   110  100  110 1   
   111  100  111 1   
   112  112  113 1   
   113  112  119 1   
   114  113  114 1   
   115  113  116 1   
   116  113  120 1   
   117  114  115 2   
   118  114  126 1   
   119  116  117 1   
   120  116  118 1   
   121  116  121 1   
   122  117  123 1   
   123  117  124 1   
   124  117  125 1   
   125  118  122 1   
   126  126  127 1   
   127  126  133 1   
   128  127  128 1   
   129  127  130 1   
   130  127  134 1   
   131  128  129 2   
   132  128  140 1   
   133  130  131 1   
   134  130  132 1   
   135  130  135 1   
   136  131  137 1   
   137  131  138 1   
   138  131  139 1   
   139  132  136 1   
   140  140  141 1   
   141  140  149 1   
   142  141  142 1   
   143  141  144 1   
   144  141  150 1   
   145  142  143 2   
   146  142  162 1   
   147  144  145 1   
   148  144  151 1   
   149  144  152 1   
   150  145  146 1   
   151  145  153 1   
   152  145  154 1   
   153  146  147 1   
   154  146  155 1   
   155  146  156 1   
   156  147  148 1   
   157  147  157 1   
   158  147  158 1   
   159  148  159 1   
   160  148  160 1   
   161  148  161 1   
   162  162  163 1   
   163  162  171 1   
   164  163  164 1   
   165  163  166 1   
   166  163  172 1   
   167  164  165 2   
   168  164  177 1   
   169  166  167 1   
   170  166  173 1   
   171  166  174 1   
   172  167  168 1   
   173  167  175 1   
   174  167  176 1   
   175  168  169 1   
   176  168  170 1   
   177  177  178 1   
   178  177  182 1   
   179  178  179 1   
   180  178  180 1   
   181  178  181 1   
   182  184  185 1   
   183  184  186 1   
   184  187  188 1   
   185  187  189 1   
@<TRIPOS>SUBSTRUCTURE
     1 MOL         1 TEMP              0 ****  ****    0 ROOT
