@<TRIPOS>MOLECULE
MOL
  189   185     1     0     0
SMALL
resp


@<TRIPOS>ATOM
      1 C1          0.9160    3.6060   -5.8530 c3        1 MOL     -0.341889
      2 C2          1.1220    3.0010   -4.4520 c         1 MOL      0.749672
      3 O1          0.2150    3.2850   -3.6560 o         1 MOL     -0.577351
      4 H1          1.2190    2.8820   -6.6100 hc        1 MOL      0.084882
      5 H2         -0.1360    3.8550   -5.9900 hc        1 MOL      0.084882
      6 H3          1.5200    4.5080   -5.9520 hc        1 MOL      0.084882
      7 N1          2.2140    2.2780   -4.1280 n         1 MOL     -0.755340
      8 C3          2.4500    2.0110   -2.6940 c3        1 MOL      0.368648
      9 C4          2.6530    3.3380   -1.9300 c         1 MOL      0.365966
     10 O2          3.3360    4.2440   -2.4940 o         1 MOL     -0.561892
     11 C5          3.5570    0.9770   -2.5560 c3        1 MOL     -0.073452
     12 C6          3.8590    0.5400   -1.0680 c         1 MOL      0.557160
     13 O3          4.9230   -0.0740   -0.7660 o         1 MOL     -0.618769
     14 O4          3.0550    0.8970   -0.1960 o         1 MOL     -0.618769
     15 H4          2.9160    2.3060   -4.8540 hn        1 MOL      0.380323
     16 H5          1.5640    1.5470   -2.2580 h1        1 MOL      0.005681
     17 H6          4.3970    1.2870   -3.1580 hc        1 MOL      0.016819
     18 H7          3.0880    0.0990   -3.0060 hc        1 MOL      0.016819
     19 N2          2.0600    3.4450   -0.7250 n         1 MOL     -0.176901
     20 C7          2.0790    4.6680    0.1270 c3        1 MOL      0.085719
     21 C8          3.1380    4.6500    1.1850 c         1 MOL      0.588267
     22 O5          3.6830    5.7090    1.4600 o         1 MOL     -0.598643
     23 C9          0.6170    4.8930    0.5590 c3        1 MOL      0.053343
     24 C10        -0.3390    5.0070   -0.6800 c3        1 MOL     -0.068501
     25 C11         0.0320    5.9330   -1.7890 c3        1 MOL     -0.209593
     26 C12        -1.0340    5.9170   -2.8850 c3        1 MOL      0.211935
     27 N3         -0.5160    6.6700   -4.0570 n4        1 MOL     -0.525834
     28 H8          1.6650    2.6050   -0.3240 hn        1 MOL      0.095922
     29 H9          2.4070    5.5000   -0.4980 h1        1 MOL      0.012443
     30 H10         0.6490    5.8070    1.1520 hc        1 MOL     -0.008777
     31 H11         0.2600    4.1230    1.2370 hc        1 MOL     -0.008777
     32 H12        -1.3010    5.1830   -0.2020 hc        1 MOL      0.057897
     33 H13        -0.3730    3.9980   -1.0900 hc        1 MOL      0.057897
     34 H14         0.9450    5.4920   -2.1810 hc        1 MOL      0.062482
     35 H15         0.0660    6.9790   -1.4670 hc        1 MOL      0.062482
     36 H16        -1.9850    6.2990   -2.5100 hx        1 MOL      0.046146
     37 H17        -1.2590    4.8870   -3.1860 hx        1 MOL      0.046146
     38 H18        -0.3980    7.6210   -3.7390 hn        1 MOL      0.357733
     39 H19         0.4080    6.3700   -4.3440 hn        1 MOL      0.357733
     40 H20        -1.2010    6.6480   -4.7970 hn        1 MOL      0.357733
     41 N4          3.5100    3.5110    1.7300 n         1 MOL     -0.470971
     42 C13         4.3480    3.3050    2.9280 c3        1 MOL      0.156191
     43 C14         5.6430    2.4330    2.6870 c         1 MOL      0.386220
     44 O6          6.3200    2.0690    3.7010 o         1 MOL     -0.493912
     45 C15         3.4560    2.9140    4.1390 c3        1 MOL     -0.159543
     46 C16         2.4500    1.8060    3.9370 c         1 MOL      0.823363
     47 O7          2.7060    1.0660    2.9480 o         1 MOL     -0.747506
     48 O8          1.4370    1.6220    4.6830 o         1 MOL     -0.747506
     49 H21         3.0600    2.7170    1.2860 hn        1 MOL      0.247412
     50 H22         4.8420    4.2220    3.2340 h1        1 MOL      0.080513
     51 H23         2.8720    3.8190    4.3510 hc        1 MOL      0.025242
     52 H24         4.0560    2.7820    5.0450 hc        1 MOL      0.025242
     53 N5          6.0760    2.1400    1.4500 n         1 MOL     -0.339180
     54 C17         7.4300    1.5880    1.2050 c3        1 MOL     -0.029089
     55 C18         7.5500    0.0750    1.6080 c         1 MOL      0.438084
     56 O9          8.6180   -0.2940    2.0900 o         1 MOL     -0.566065
     57 H25         5.4470    2.3290    0.6800 hn        1 MOL      0.258365
     58 H26         8.2110    2.1840    1.6760 h1        1 MOL      0.071654
     59 H27         7.6360    1.6470    0.1320 h1        1 MOL      0.071654
     60 N6          6.5590   -0.7760    1.4150 n         1 MOL     -0.199367
     61 C19         6.6530   -2.1890    1.7630 c3        1 MOL      0.041691
     62 C20         6.6030   -3.1440    0.4770 c         1 MOL      0.336705
     63 O10         6.8760   -4.3380    0.5870 o         1 MOL     -0.527792
     64 C21         5.6120   -2.5680    2.7340 c3        1 MOL     -0.120210
     65 C22         4.1720   -2.2510    2.2940 c         1 MOL      0.719518
     66 O11         3.3230   -1.8320    3.0810 o         1 MOL     -0.769301
     67 O12         3.8880   -2.2430    1.0910 o         1 MOL     -0.769301
     68 H28         5.7100   -0.3940    1.0470 hn        1 MOL      0.236231
     69 H29         7.6500   -2.4200    2.1350 h1        1 MOL      0.098452
     70 H30         5.8690   -2.2410    3.7410 hc        1 MOL      0.045810
     71 H31         5.6630   -3.6500    2.8310 hc        1 MOL      0.045810
     72 N7          6.3800   -2.5900   -0.6760 n         1 MOL     -0.126318
     73 C23         6.3230   -3.2630   -1.9970 c3        1 MOL     -0.255026
     74 C24         4.9920   -3.9490   -2.3370 c         1 MOL      0.607223
     75 O13         4.9200   -4.8030   -3.1900 o         1 MOL     -0.569510
     76 H32         6.1180   -1.6130   -0.6700 hn        1 MOL      0.118297
     77 H33         7.1120   -4.0070   -1.9120 h1        1 MOL      0.119135
     78 H34         6.5850   -2.5610   -2.7900 h1        1 MOL      0.119135
     79 N8          3.9680   -3.4700   -1.6550 n         1 MOL     -0.365773
     80 C25         2.5900   -4.0260   -1.7080 c3        1 MOL     -0.168371
     81 C26         1.4940   -3.0550   -1.5200 c         1 MOL      0.684018
     82 O14         1.6460   -2.0070   -0.8390 o         1 MOL     -0.667640
     83 C27         2.3840   -5.1430   -0.5880 c3        1 MOL      0.420301
     84 C28         2.9980   -6.5020   -0.8370 c3        1 MOL     -0.464268
     85 O15         3.0280   -4.7480    0.6510 oh        1 MOL     -0.619954
     86 H35         4.1820   -2.7440   -0.9950 hn        1 MOL      0.320509
     87 H36         2.4370   -4.4950   -2.6790 h1        1 MOL      0.091126
     88 H37         1.3150   -5.1750   -0.3720 h1        1 MOL     -0.008489
     89 H38         3.4560   -3.9050    0.5170 ho        1 MOL      0.449493
     90 H39         4.0830   -6.4290   -0.8580 hc        1 MOL      0.124279
     91 H40         2.6810   -7.2470   -0.1040 hc        1 MOL      0.124279
     92 H41         2.5520   -6.9040   -1.7430 hc        1 MOL      0.124279
     93 N9          0.3220   -3.3490   -2.0480 n         1 MOL     -0.523871
     94 C29        -0.8720   -2.4800   -2.2290 c3        1 MOL      0.067452
     95 C30        -2.0870   -3.1480   -1.5980 c         1 MOL      0.379954
     96 O16        -2.4450   -4.2650   -1.9740 o         1 MOL     -0.516485
     97 C31        -1.1300   -2.2210   -3.6910 c3        1 MOL     -0.050133
     98 C32         0.1770   -1.5830   -4.2440 c3        1 MOL     -0.010816
     99 C33        -2.4150   -1.4290   -4.0290 c3        1 MOL     -0.052595
    100 C34         0.0770   -0.9850   -5.6940 c3        1 MOL     -0.178877
    101 H42         0.2950   -4.1960   -2.6000 hn        1 MOL      0.289892
    102 H43        -0.7740   -1.5000   -1.7670 h1        1 MOL      0.056856
    103 H44        -1.2160   -3.2180   -4.1320 hc        1 MOL      0.035630
    104 H45         1.0140   -2.2690   -4.2530 hc        1 MOL      0.049947
    105 H46         0.4400   -0.7700   -3.5700 hc        1 MOL      0.049947
    106 H47        -2.7350   -1.6510   -5.0450 hc        1 MOL      0.025292
    107 H48        -3.2680   -1.7760   -3.4450 hc        1 MOL      0.025292
    108 H49        -2.2590   -0.3530   -3.9430 hc        1 MOL      0.025292
    109 H50        -0.5040   -1.5720   -6.4070 hc        1 MOL      0.043586
    110 H51        -0.3990   -0.0120   -5.7160 hc        1 MOL      0.043586
    111 H52         1.0810   -0.8860   -6.0920 hc        1 MOL      0.043586
    112 N10        -2.6430   -2.5630   -0.5140 n         1 MOL     -0.055801
    113 C35        -3.8290   -2.9840    0.2420 c3        1 MOL     -0.044837
    114 C36        -5.1420   -2.4220   -0.3310 c         1 MOL      0.165063
    115 O17        -5.1480   -1.5280   -1.1680 o         1 MOL     -0.184740
    116 C37        -3.7130   -2.5430    1.7300 c3        1 MOL      0.091863
    117 C38        -2.4060   -2.9190    2.4420 c3        1 MOL     -0.361972
    118 O18        -3.7830   -1.1150    1.7410 oh        1 MOL     -0.434723
    119 H53        -2.1300   -1.8310   -0.0430 hn        1 MOL      0.233256
    120 H54        -3.6970   -4.0700    0.2220 h1        1 MOL      0.075818
    121 H55        -4.5510   -2.9800    2.2730 h1        1 MOL      0.086318
    122 H56        -2.9030   -0.8260    2.0040 ho        1 MOL      0.371429
    123 H57        -1.6310   -2.2540    2.0620 hc        1 MOL      0.106353
    124 H58        -2.7030   -2.7650    3.4830 hc        1 MOL      0.106353
    125 H59        -2.1350   -3.9770    2.4050 hc        1 MOL      0.106353
    126 N11        -6.3100   -2.7380    0.1750 n         1 MOL     -0.133902
    127 C39        -7.5930   -2.0360   -0.0400 c3        1 MOL     -0.239022
    128 C40        -7.5990   -0.5310    0.3380 c         1 MOL      0.433830
    129 O19        -8.4920    0.1750   -0.1490 o         1 MOL     -0.493412
    130 C41        -8.7970   -2.7750    0.5730 c3        1 MOL      0.344985
    131 C42        -9.4350   -3.8130   -0.3420 c3        1 MOL     -0.378558
    132 O20        -8.3880   -3.2970    1.8150 oh        1 MOL     -0.644764
    133 H60        -6.2990   -3.4820    0.8590 hn        1 MOL      0.241730
    134 H61        -7.7440   -2.0860   -1.1170 h1        1 MOL      0.158892
    135 H62        -9.5530   -2.0790    0.9130 h1        1 MOL      0.041255
    136 H63        -9.2140   -3.5490    2.2420 ho        1 MOL      0.409401
    137 H64       -10.4830   -4.0110   -0.1130 hc        1 MOL      0.108242
    138 H65        -9.5370   -3.4100   -1.3440 hc        1 MOL      0.108242
    139 H66        -8.8510   -4.7300   -0.3080 hc        1 MOL      0.108242
    140 N12        -6.6040   -0.0200    1.1260 n         1 MOL     -0.184879
    141 C43        -6.4770    1.3950    1.3670 c3        1 MOL     -0.114399
    142 C44        -5.7350    2.0680    0.2340 c         1 MOL      0.509076
    143 O21        -5.8810    3.2450    0.0160 o         1 MOL     -0.543994
    144 C45        -5.8350    1.6960    2.7480 c3        1 MOL      0.071417
    145 C46        -6.3670    1.0070    4.0710 c3        1 MOL     -0.385213
    146 C47        -5.5980    1.5110    5.3030 c3        1 MOL      0.105670
    147 C48        -6.1780    1.1460    6.7130 c3        1 MOL     -0.039713
    148 N13        -5.2650    1.6540    7.7510 n4        1 MOL     -0.238247
    149 H67        -5.8960   -0.6370    1.5010 hn        1 MOL      0.197372
    150 H68        -7.4440    1.8850    1.3700 h1        1 MOL      0.121899
    151 H69        -5.7460    2.7860    2.8510 hc        1 MOL      0.041884
    152 H70        -4.7630    1.4910    2.7470 hc        1 MOL      0.041884
    153 H71        -6.2680   -0.0730    4.1160 hc        1 MOL      0.117926
    154 H72        -7.4030    1.3230    4.1370 hc        1 MOL      0.117926
    155 H73        -5.5100    2.5960    5.2600 hc        1 MOL      0.018236
    156 H74        -4.5390    1.2360    5.2890 hc        1 MOL      0.018236
    157 H75        -6.1370    0.0630    6.7340 hx        1 MOL      0.102367
    158 H76        -7.2060    1.4830    6.8780 hx        1 MOL      0.102367
    159 H77        -5.1790    2.6540    7.6430 hn        1 MOL      0.302924
    160 H78        -5.6180    1.4630    8.6680 hn        1 MOL      0.302924
    161 H79        -4.2960    1.4110    7.6170 hn        1 MOL      0.302924
    162 N14        -4.9040    1.3130   -0.5110 n         1 MOL      0.005647
    163 C49        -4.0060    1.7880   -1.5530 c3        1 MOL     -0.095485
    164 C50        -4.5570    1.5610   -3.0070 c         1 MOL      0.459854
    165 O22        -4.4530    2.5350   -3.8390 o         1 MOL     -0.563716
    166 C51        -2.6630    1.1920   -1.4240 c3        1 MOL      0.036998
    167 C52        -2.0990    1.6440   -0.0290 c3        1 MOL     -0.076298
    168 C53        -0.8540    0.9160    0.4330 c         1 MOL      0.622423
    169 O23        -0.7230   -0.2740    0.2940 o         1 MOL     -0.676199
    170 O24         0.1030    1.5310    0.9680 o         1 MOL     -0.676199
    171 H80        -4.7930    0.3570   -0.2180 hn        1 MOL     -0.252134
    172 H81        -3.8070    2.8190   -1.2780 h1        1 MOL      0.055990
    173 H82        -1.9300    1.6010   -2.1090 hc        1 MOL      0.051415
    174 H83        -2.6560    0.0950   -1.4230 hc        1 MOL      0.051415
    175 H84        -2.7860    1.4340    0.7890 hc        1 MOL      0.009441
    176 H85        -1.8850    2.7050   -0.0460 hc        1 MOL      0.009441
    177 N15        -5.1820    0.4220   -3.2390 n         1 MOL     -0.154599
    178 C54        -5.6370    0.0160   -4.6130 c3        1 MOL     -0.228381
    179 H86        -4.7700   -0.0930   -5.2650 h1        1 MOL      0.102987
    180 H87        -6.1680   -0.9350   -4.5540 h1        1 MOL      0.102987
    181 H88        -6.3010    0.7790   -5.0170 h1        1 MOL      0.102987
    182 H89        -5.1860   -0.3180   -2.5480 hn        1 MOL      0.103992
    183 Ca1         1.6580   -0.6980    1.4310 Ca        1 MOL      1.784427
    184 O25         0.1470   -0.5270    3.6260 oh        1 MOL     -0.837176
    185 H90        -0.3030   -1.0440    4.2990 ho        1 MOL      0.387270
    186 H91         0.5630    0.1840    4.1130 ho        1 MOL      0.387270
    187 O26         0.9600   -3.3780    1.8430 oh        1 MOL     -0.837176
    188 H92         0.5660   -3.4650    2.7140 ho        1 MOL      0.387270
    189 H93         1.6130   -4.0880    1.8090 ho        1 MOL      0.387270
@<TRIPOS>BOND
     1    1    2 1   
     2    1    4 1   
     3    1    5 1   
     4    1    6 1   
     5    2    3 2   
     6    2    7 1   
     7    7    8 1   
     8    7   15 1   
     9    8    9 1   
    10    8   11 1   
    11    8   16 1   
    12    9   10 2   
    13    9   19 1   
    14   11   12 1   
    15   11   17 1   
    16   11   18 1   
    17   12   13 1   
    18   12   14 1   
    19   19   20 1   
    20   19   28 1   
    21   20   21 1   
    22   20   23 1   
    23   20   29 1   
    24   21   22 2   
    25   21   41 1   
    26   23   24 1   
    27   23   30 1   
    28   23   31 1   
    29   24   25 1   
    30   24   32 1   
    31   24   33 1   
    32   25   26 1   
    33   25   34 1   
    34   25   35 1   
    35   26   27 1   
    36   26   36 1   
    37   26   37 1   
    38   27   38 1   
    39   27   39 1   
    40   27   40 1   
    41   41   42 1   
    42   41   49 1   
    43   42   43 1   
    44   42   45 1   
    45   42   50 1   
    46   43   44 2   
    47   43   53 1   
    48   45   46 1   
    49   45   51 1   
    50   45   52 1   
    51   46   47 1   
    52   46   48 1   
    53   53   54 1   
    54   53   57 1   
    55   54   55 1   
    56   54   58 1   
    57   54   59 1   
    58   55   56 2   
    59   55   60 1   
    60   60   61 1   
    61   60   68 1   
    62   61   62 1   
    63   61   64 1   
    64   61   69 1   
    65   62   63 2   
    66   62   72 1   
    67   64   65 1   
    68   64   70 1   
    69   64   71 1   
    70   65   66 1   
    71   65   67 1   
    72   72   73 1   
    73   72   76 1   
    74   73   74 1   
    75   73   77 1   
    76   73   78 1   
    77   74   75 2   
    78   74   79 1   
    79   79   80 1   
    80   79   86 1   
    81   80   81 1   
    82   80   83 1   
    83   80   87 1   
    84   81   82 2   
    85   81   93 1   
    86   83   84 1   
    87   83   85 1   
    88   83   88 1   
    89   84   90 1   
    90   84   91 1   
    91   84   92 1   
    92   85   89 1   
    93   93   94 1   
    94   93  101 1   
    95   94   95 1   
    96   94   97 1   
    97   94  102 1   
    98   95   96 2   
    99   95  112 1   
   100   97   98 1   
   101   97   99 1   
   102   97  103 1   
   103   98  100 1   
   104   98  104 1   
   105   98  105 1   
   106   99  106 1   
   107   99  107 1   
   108   99  108 1   
   109  100  109 1   
   110  100  110 1   
   111  100  111 1   
   112  112  113 1   
   113  112  119 1   
   114  113  114 1   
   115  113  116 1   
   116  113  120 1   
   117  114  115 2   
   118  114  126 1   
   119  116  117 1   
   120  116  118 1   
   121  116  121 1   
   122  117  123 1   
   123  117  124 1   
   124  117  125 1   
   125  118  122 1   
   126  126  127 1   
   127  126  133 1   
   128  127  128 1   
   129  127  130 1   
   130  127  134 1   
   131  128  129 2   
   132  128  140 1   
   133  130  131 1   
   134  130  132 1   
   135  130  135 1   
   136  131  137 1   
   137  131  138 1   
   138  131  139 1   
   139  132  136 1   
   140  140  141 1   
   141  140  149 1   
   142  141  142 1   
   143  141  144 1   
   144  141  150 1   
   145  142  143 2   
   146  142  162 1   
   147  144  145 1   
   148  144  151 1   
   149  144  152 1   
   150  145  146 1   
   151  145  153 1   
   152  145  154 1   
   153  146  147 1   
   154  146  155 1   
   155  146  156 1   
   156  147  148 1   
   157  147  157 1   
   158  147  158 1   
   159  148  159 1   
   160  148  160 1   
   161  148  161 1   
   162  162  163 1   
   163  162  171 1   
   164  163  164 1   
   165  163  166 1   
   166  163  172 1   
   167  164  165 2   
   168  164  177 1   
   169  166  167 1   
   170  166  173 1   
   171  166  174 1   
   172  167  168 1   
   173  167  175 1   
   174  167  176 1   
   175  168  169 1   
   176  168  170 1   
   177  177  178 1   
   178  177  182 1   
   179  178  179 1   
   180  178  180 1   
   181  178  181 1   
   182  184  185 1   
   183  184  186 1   
   184  187  188 1   
   185  187  189 1   
@<TRIPOS>SUBSTRUCTURE
     1 MOL         1 TEMP              0 ****  ****    0 ROOT
