@<TRIPOS>MOLECULE
MOL
  176   174     1     0     0
SMALL
resp


@<TRIPOS>ATOM
      1 C1         -0.0660   -3.9720    6.4800 c3        1 MOL     -0.306442
      2 C2          0.0550   -3.3930    5.0180 c         1 MOL      0.719449
      3 O1         -0.9810   -3.4510    4.3710 o         1 MOL     -0.572480
      4 H1          0.7910   -3.6470    7.0700 hc        1 MOL      0.073400
      5 H2         -0.9840   -3.6070    6.9410 hc        1 MOL      0.073400
      6 H3         -0.0870   -5.0600    6.4390 hc        1 MOL      0.073400
      7 N1          1.2160   -3.0120    4.5390 n         1 MOL     -0.624441
      8 C3          1.3960   -2.7200    3.0800 c3        1 MOL      0.155353
      9 C4          1.2740   -4.0120    2.2560 c         1 MOL      0.582423
     10 O2          1.8180   -5.0720    2.6310 o         1 MOL     -0.584146
     11 C5          2.7100   -2.0270    2.7240 c3        1 MOL     -0.226535
     12 C6          2.7020   -1.4690    1.2620 c         1 MOL      0.914671
     13 O3          2.4910   -2.2200    0.2930 o         1 MOL     -0.753905
     14 O4          2.7700   -0.2380    1.0170 o         1 MOL     -0.753905
     15 H4          1.9990   -3.0960    5.1610 hn        1 MOL      0.339375
     16 H5          0.5340   -2.1150    2.7830 h1        1 MOL      0.018461
     17 H6          3.5750   -2.6630    2.8880 hc        1 MOL      0.052746
     18 H7          2.8160   -1.2110    3.4340 hc        1 MOL      0.052746
     19 N2          0.5480   -3.9840    1.1750 n         1 MOL     -0.248294
     20 C7          0.1680   -5.1260    0.3810 c3        1 MOL     -0.326749
     21 C8          1.2510   -5.6280   -0.5410 c         1 MOL      0.682948
     22 O5          1.2320   -6.7700   -0.9800 o         1 MOL     -0.595056
     23 C9         -1.0800   -4.7410   -0.3840 c3        1 MOL      0.169846
     24 C10        -1.6270   -5.7070   -1.3960 c3        1 MOL     -0.360961
     25 C11        -2.9330   -5.1750   -2.0670 c3        1 MOL      0.156666
     26 C12        -3.4070   -6.2090   -3.0570 c3        1 MOL     -0.006170
     27 N3         -4.5800   -5.6010   -3.7590 n4        1 MOL     -0.317741
     28 H8          0.1120   -3.1360    0.8550 hn        1 MOL      0.174000
     29 H9         -0.1230   -5.9380    1.0400 h1        1 MOL      0.168557
     30 H10        -0.9920   -3.7940   -0.9030 hc        1 MOL      0.046552
     31 H11        -1.9190   -4.6130    0.3100 hc        1 MOL      0.046552
     32 H12        -1.8210   -6.6410   -0.8770 hc        1 MOL      0.105299
     33 H13        -0.8260   -5.8340   -2.1330 hc        1 MOL      0.105299
     34 H14        -2.7070   -4.2580   -2.6190 hc        1 MOL      0.015018
     35 H15        -3.7980   -5.0040   -1.4140 hc        1 MOL      0.015018
     36 H16        -3.7080   -7.0860   -2.4970 hx        1 MOL      0.089085
     37 H17        -2.5670   -6.3720   -3.7270 hx        1 MOL      0.089085
     38 H18        -5.3530   -5.4280   -3.1260 hn        1 MOL      0.312960
     39 H19        -4.2960   -4.7270   -4.1830 hn        1 MOL      0.312960
     40 H20        -5.0620   -6.1180   -4.4740 hn        1 MOL      0.312960
     41 N4          2.2100   -4.7360   -0.8580 n         1 MOL     -0.503203
     42 C13         3.2000   -4.9790   -1.8690 c3        1 MOL      0.190274
     43 C14         4.6540   -4.6810   -1.3980 c         1 MOL      0.460778
     44 O6          5.6310   -5.0990   -1.9850 o         1 MOL     -0.541061
     45 C15         2.8890   -4.1860   -3.1340 c3        1 MOL     -0.436075
     46 C16         2.4200   -2.7620   -2.8060 c         1 MOL      0.916059
     47 O7          1.2160   -2.3970   -2.6890 o         1 MOL     -0.805751
     48 O8          3.2320   -1.7840   -2.8200 o         1 MOL     -0.805751
     49 H21         1.9970   -3.8360   -0.4620 hn        1 MOL      0.297541
     50 H22         3.2420   -6.0480   -2.0800 h1        1 MOL      0.082368
     51 H23         2.0580   -4.6770   -3.6140 hc        1 MOL      0.110480
     52 H24         3.8110   -4.1890   -3.7130 hc        1 MOL      0.110480
     53 N5          4.7870   -3.9500   -0.2760 n         1 MOL     -0.245642
     54 C17         6.0340   -3.6760    0.4670 c3        1 MOL     -0.056685
     55 C18         6.6550   -2.3320    0.1220 c         1 MOL      0.556695
     56 O9          7.7420   -2.1160    0.6520 o         1 MOL     -0.568368
     57 H25         3.9490   -3.4470   -0.0040 hn        1 MOL      0.105445
     58 H26         6.7260   -4.4600    0.1770 h1        1 MOL      0.087520
     59 H27         6.0010   -3.6870    1.5610 h1        1 MOL      0.087520
     60 N6          5.9770   -1.3420   -0.5690 n         1 MOL     -0.280723
     61 C19         6.6850    0.0070   -0.7710 c3        1 MOL     -0.131693
     62 C20         6.3540    1.0900    0.2450 c         1 MOL      0.464957
     63 O10         6.9780    2.1650    0.2350 o         1 MOL     -0.547663
     64 C21         6.2850    0.4050   -2.2310 c3        1 MOL     -0.112250
     65 C22         4.9040    0.9450   -2.3660 c         1 MOL      0.462305
     66 N7          4.5240    1.8210   -3.2830 n         1 MOL     -0.731587
     67 O11         4.0350    0.7170   -1.5250 o         1 MOL     -0.074660
     68 H28         4.9750   -1.4740   -0.6140 hn        1 MOL      0.111661
     69 H29         7.7510   -0.1540   -0.7120 h1        1 MOL      0.168040
     70 H30         6.4230   -0.4740   -2.8590 hc        1 MOL      0.066180
     71 H31         6.9140    1.2160   -2.6190 hc        1 MOL      0.066180
     72 H32         5.1950    2.1850   -3.9380 hn        1 MOL      0.345542
     73 H33         3.5710    2.1480   -3.2180 hn        1 MOL      0.345542
     74 N8          5.4220    0.8740    1.1450 n         1 MOL     -0.094325
     75 C23         5.0790    1.7740    2.2250 c3        1 MOL     -0.471897
     76 C24         4.1620    2.9340    1.8700 c         1 MOL      0.692767
     77 O12         4.1700    3.8570    2.6600 o         1 MOL     -0.590794
     78 H34         4.7380    0.1260    1.0450 hn        1 MOL      0.101831
     79 H35         6.0290    2.1370    2.6250 h1        1 MOL      0.189030
     80 H36         4.5490    1.1120    2.9200 h1        1 MOL      0.189030
     81 N9          3.4430    2.8980    0.7570 n         1 MOL     -0.100459
     82 C25         2.3920    3.8820    0.4210 c3        1 MOL      0.052562
     83 C26         1.0230    3.1660    0.2160 c         1 MOL      0.578807
     84 O13         0.9210    2.1650   -0.5000 o         1 MOL     -0.630258
     85 C27         2.8120    4.8320   -0.7240 c3        1 MOL     -0.137503
     86 C28         4.1420    5.5560   -0.5860 ca        1 MOL      0.181257
     87 C29         4.2050    6.9610   -0.2620 ca        1 MOL     -0.249780
     88 C30         5.2830    4.9410   -0.9780 ca        1 MOL     -0.249780
     89 C31         5.4690    7.6000   -0.3100 ca        1 MOL     -0.221228
     90 C32         6.5200    5.5940   -1.0660 ca        1 MOL     -0.221228
     91 C33         6.6330    6.9680   -0.7980 ca        1 MOL      0.338599
     92 O14         7.7530    7.6440   -1.1770 oh        1 MOL     -0.505771
     93 H37         3.6240    2.1850    0.0630 hn        1 MOL     -0.143980
     94 H38         2.1480    4.5020    1.2770 h1        1 MOL      0.046741
     95 H39         2.0910    5.6380   -0.8210 hc        1 MOL      0.035284
     96 H40         2.8620    4.3480   -1.7000 hc        1 MOL      0.035284
     97 H41         3.3190    7.4680    0.0830 ha        1 MOL      0.157700
     98 H42         5.3410    3.8780   -1.1450 ha        1 MOL      0.157700
     99 H43         5.4860    8.6260   -0.0010 ha        1 MOL      0.143154
    100 H44         7.3860    5.0060   -1.3100 ha        1 MOL      0.143154
    101 H45         8.4090    6.9900   -1.4400 ho        1 MOL      0.373921
    102 N10        -0.0020    3.5740    0.8770 n         1 MOL     -0.499045
    103 C34        -1.3370    2.8710    1.0520 c3        1 MOL     -0.011276
    104 C35        -2.4390    3.7680    0.4610 c         1 MOL      0.625189
    105 O15        -2.6280    4.8740    0.9400 o         1 MOL     -0.541210
    106 C36        -1.5950    2.5430    2.6050 c3        1 MOL      0.088865
    107 C37        -0.4220    1.6420    3.1760 c3        1 MOL      0.046232
    108 C38        -2.9520    1.9950    2.9830 c3        1 MOL     -0.126436
    109 C39         0.0620    2.2430    4.5190 c3        1 MOL     -0.361011
    110 H46         0.1640    4.3910    1.4500 hn        1 MOL      0.305210
    111 H47        -1.2370    1.8920    0.5730 h1        1 MOL      0.094067
    112 H48        -1.6730    3.4940    3.1380 hc        1 MOL      0.010971
    113 H49         0.4110    1.5210    2.4720 hc        1 MOL      0.037081
    114 H50        -0.7130    0.6380    3.4820 hc        1 MOL      0.037081
    115 H51        -3.0180    1.0110    2.5200 hc        1 MOL      0.036522
    116 H52        -3.0570    1.9600    4.0670 hc        1 MOL      0.036522
    117 H53        -3.7400    2.6370    2.6060 hc        1 MOL      0.036522
    118 H54         0.6880    3.1010    4.2940 hc        1 MOL      0.090853
    119 H55        -0.7800    2.3290    5.2140 hc        1 MOL      0.090853
    120 H56         0.6710    1.4940    5.0250 hc        1 MOL      0.090853
    121 N11        -3.1890    3.2610   -0.5150 n         1 MOL     -0.483546
    122 C40        -4.4720    3.9030   -0.9650 c3        1 MOL      0.046552
    123 C41        -5.7120    3.4540   -0.2180 c         1 MOL      0.523286
    124 O16        -5.6300    2.5440    0.5420 o         1 MOL     -0.336073
    125 C42        -4.6440    3.6760   -2.4980 c3        1 MOL      0.028088
    126 O17        -4.9210    2.3420   -2.7210 oh        1 MOL     -0.501061
    127 H57        -3.0910    2.2930   -0.8080 hn        1 MOL      0.290189
    128 H58        -4.4040    4.9790   -0.8210 h1        1 MOL      0.077736
    129 H59        -3.7690    3.9650   -3.0830 h1        1 MOL      0.046280
    130 H60        -5.4250    4.3600   -2.8590 h1        1 MOL      0.046280
    131 H61        -4.8240    2.1810   -3.6640 ho        1 MOL      0.395432
    132 N12        -6.9090    4.0810   -0.4400 n         1 MOL     -0.516142
    133 C43        -8.1330    3.6060    0.1110 c3        1 MOL      0.192788
    134 C44        -8.3500    2.1180   -0.1820 c         1 MOL      0.374959
    135 O18        -8.7850    1.3980    0.7150 o         1 MOL     -0.477221
    136 C45        -9.2520    4.4980   -0.4330 c3        1 MOL     -0.407307
    137 H62        -7.1060    4.9540   -0.9160 hn        1 MOL      0.298383
    138 H63        -7.9480    3.6100    1.1920 h1        1 MOL      0.065155
    139 H64       -10.2100    4.1520   -0.0400 hc        1 MOL      0.123919
    140 H65        -9.2200    5.5370   -0.1050 hc        1 MOL      0.123919
    141 H66        -9.2310    4.5020   -1.5230 hc        1 MOL      0.123919
    142 N13        -8.1900    1.6720   -1.4290 n         1 MOL     -0.304376
    143 C46        -8.3560    0.2720   -1.7600 c3        1 MOL      0.130830
    144 C47        -7.4270   -0.6200   -1.0730 c         1 MOL      0.363228
    145 O19        -7.8260   -1.7550   -0.9280 o         1 MOL     -0.528561
    146 C48        -8.3640    0.0710   -3.2730 c3        1 MOL     -0.075653
    147 H67        -8.1020    2.3600   -2.1630 hn        1 MOL      0.244079
    148 H68        -9.3580   -0.1020   -1.5170 h1        1 MOL      0.077652
    149 H69        -8.3590   -0.9510   -3.6710 hc        1 MOL      0.020438
    150 H70        -9.2320    0.5970   -3.6510 hc        1 MOL      0.020438
    151 H71        -7.5020    0.5330   -3.7650 hc        1 MOL      0.020438
    152 N14        -6.2170   -0.1750   -0.7340 n         1 MOL     -0.126446
    153 C49        -5.2700   -1.0600   -0.0040 c3        1 MOL     -0.023609
    154 C50        -5.7450   -1.1860    1.4400 c         1 MOL      0.542637
    155 O20        -5.4900   -2.2880    1.9610 o         1 MOL     -0.561678
    156 C51        -3.8980   -0.3580   -0.1360 c3        1 MOL     -0.122220
    157 C52        -2.7970   -1.2850    0.3960 c3        1 MOL     -0.021487
    158 C53        -1.3620   -0.9780   -0.1170 c         1 MOL      0.727742
    159 O21        -0.3260   -1.2820    0.5070 o         1 MOL     -0.784533
    160 O22        -1.2000   -0.4800   -1.2610 o         1 MOL     -0.784533
    161 H72        -5.9930    0.8010   -0.8300 hn        1 MOL     -0.037282
    162 H73        -5.2900   -2.0600   -0.4500 h1        1 MOL      0.048210
    163 H74        -3.8660    0.6270    0.3310 hc        1 MOL      0.043727
    164 H75        -3.7810   -0.2820   -1.2170 hc        1 MOL      0.043727
    165 H76        -2.9760   -2.3280    0.1500 hc        1 MOL      0.018015
    166 H77        -2.8520   -1.3010    1.4890 hc        1 MOL      0.018015
    167 N15        -6.5060   -0.2770    2.0610 n         1 MOL     -0.123618
    168 C54        -7.1080   -0.4120    3.3550 c3        1 MOL     -0.399966
    169 H78        -7.8620   -1.1980    3.3230 h1        1 MOL      0.150282
    170 H79        -6.3430   -0.6730    4.0860 h1        1 MOL      0.150282
    171 H80        -7.5770    0.5300    3.6380 h1        1 MOL      0.150282
    172 H81        -6.5740    0.5950    1.5490 hn        1 MOL      0.143211
    173 Ca1         1.4280   -0.2700   -1.1980 Ca        1 MOL      1.718483
    174 O23         1.3800    1.2500   -3.2340 oh        1 MOL     -0.924970
    175 H82         0.8980    2.0800   -3.1930 ho        1 MOL      0.444079
    176 H83         1.1600    0.8910   -4.0940 ho        1 MOL      0.444079
@<TRIPOS>BOND
     1    1    2 1   
     2    1    4 1   
     3    1    5 1   
     4    1    6 1   
     5    2    3 2   
     6    2    7 1   
     7    7    8 1   
     8    7   15 1   
     9    8    9 1   
    10    8   11 1   
    11    8   16 1   
    12    9   10 2   
    13    9   19 1   
    14   11   12 1   
    15   11   17 1   
    16   11   18 1   
    17   12   13 1   
    18   12   14 1   
    19   19   20 1   
    20   19   28 1   
    21   20   21 1   
    22   20   23 1   
    23   20   29 1   
    24   21   22 2   
    25   21   41 1   
    26   23   24 1   
    27   23   30 1   
    28   23   31 1   
    29   24   25 1   
    30   24   32 1   
    31   24   33 1   
    32   25   26 1   
    33   25   34 1   
    34   25   35 1   
    35   26   27 1   
    36   26   36 1   
    37   26   37 1   
    38   27   38 1   
    39   27   39 1   
    40   27   40 1   
    41   41   42 1   
    42   41   49 1   
    43   42   43 1   
    44   42   45 1   
    45   42   50 1   
    46   43   44 2   
    47   43   53 1   
    48   45   46 1   
    49   45   51 1   
    50   45   52 1   
    51   46   47 1   
    52   46   48 1   
    53   53   54 1   
    54   53   57 1   
    55   54   55 1   
    56   54   58 1   
    57   54   59 1   
    58   55   56 2   
    59   55   60 1   
    60   60   61 1   
    61   60   68 1   
    62   61   62 1   
    63   61   64 1   
    64   61   69 1   
    65   62   63 2   
    66   62   74 1   
    67   64   65 1   
    68   64   70 1   
    69   64   71 1   
    70   65   66 1   
    71   65   67 2   
    72   66   72 1   
    73   66   73 1   
    74   74   75 1   
    75   74   78 1   
    76   75   76 1   
    77   75   79 1   
    78   75   80 1   
    79   76   77 2   
    80   76   81 1   
    81   81   82 1   
    82   81   93 1   
    83   82   83 1   
    84   82   85 1   
    85   82   94 1   
    86   83   84 2   
    87   83  102 1   
    88   85   86 1   
    89   85   95 1   
    90   85   96 1   
    91   86   87 ar  
    92   86   88 ar  
    93   87   89 ar  
    94   87   97 1   
    95   88   90 ar  
    96   88   98 1   
    97   89   91 ar  
    98   89   99 1   
    99   90   91 ar  
   100   90  100 1   
   101   91   92 1   
   102   92  101 1   
   103  102  103 1   
   104  102  110 1   
   105  103  104 1   
   106  103  106 1   
   107  103  111 1   
   108  104  105 2   
   109  104  121 1   
   110  106  107 1   
   111  106  108 1   
   112  106  112 1   
   113  107  109 1   
   114  107  113 1   
   115  107  114 1   
   116  108  115 1   
   117  108  116 1   
   118  108  117 1   
   119  109  118 1   
   120  109  119 1   
   121  109  120 1   
   122  121  122 1   
   123  121  127 1   
   124  122  123 1   
   125  122  125 1   
   126  122  128 1   
   127  123  124 2   
   128  123  132 1   
   129  125  126 1   
   130  125  129 1   
   131  125  130 1   
   132  126  131 1   
   133  132  133 1   
   134  132  137 1   
   135  133  134 1   
   136  133  136 1   
   137  133  138 1   
   138  134  135 2   
   139  134  142 1   
   140  136  139 1   
   141  136  140 1   
   142  136  141 1   
   143  142  143 1   
   144  142  147 1   
   145  143  144 1   
   146  143  146 1   
   147  143  148 1   
   148  144  145 2   
   149  144  152 1   
   150  146  149 1   
   151  146  150 1   
   152  146  151 1   
   153  152  153 1   
   154  152  161 1   
   155  153  154 1   
   156  153  156 1   
   157  153  162 1   
   158  154  155 2   
   159  154  167 1   
   160  156  157 1   
   161  156  163 1   
   162  156  164 1   
   163  157  158 1   
   164  157  165 1   
   165  157  166 1   
   166  158  159 1   
   167  158  160 1   
   168  167  168 1   
   169  167  172 1   
   170  168  169 1   
   171  168  170 1   
   172  168  171 1   
   173  174  175 1   
   174  174  176 1   
@<TRIPOS>SUBSTRUCTURE
     1 MOL         1 TEMP              0 ****  ****    0 ROOT
