@<TRIPOS>MOLECULE
MOL
  172   171     1     0     0
SMALL
resp


@<TRIPOS>ATOM
      1 C1          0.3500    3.5760    5.7160 c3        1 MOL     -0.427364
      2 C2         -0.1590    3.6100    4.2660 c         1 MOL      0.775011
      3 O1          0.6420    3.7100    3.3150 o         1 MOL     -0.589061
      4 H1          0.1000    4.5150    6.2090 hc        1 MOL      0.101291
      5 H2         -0.1210    2.7500    6.2470 hc        1 MOL      0.101291
      6 H3          1.4310    3.4420    5.7190 hc        1 MOL      0.101291
      7 N1         -1.4200    3.5710    4.0800 n         1 MOL     -0.625778
      8 C3         -2.1080    3.4820    2.7440 c3        1 MOL      0.210613
      9 C4         -2.1410    4.8080    1.8890 c         1 MOL      0.569683
     10 O2         -2.3380    5.8920    2.4470 o         1 MOL     -0.570962
     11 C5         -3.4460    2.7950    2.9390 c3        1 MOL     -0.138801
     12 C6         -4.0630    2.4490    1.5610 c         1 MOL      0.483663
     13 O3         -3.3470    2.1730    0.5480 o         1 MOL     -0.598033
     14 O4         -5.3330    2.6400    1.4700 o         1 MOL     -0.598033
     15 H4         -1.9660    3.4600    4.9210 hn        1 MOL      0.297706
     16 H5         -1.5550    2.7920    2.1090 h1        1 MOL      0.034105
     17 H6         -4.1710    3.4030    3.4950 hc        1 MOL      0.031931
     18 H7         -3.3330    1.8430    3.4610 hc        1 MOL      0.031931
     19 N2         -2.0650    4.6110    0.5660 n         1 MOL     -0.486891
     20 C7         -2.1580    5.6430   -0.3700 c3        1 MOL      0.248871
     21 C8         -3.1380    5.3030   -1.5370 c         1 MOL      0.430385
     22 O5         -3.2130    6.0370   -2.5500 o         1 MOL     -0.560713
     23 C9         -0.7320    6.1070   -0.8900 c3        1 MOL     -0.250921
     24 H8         -2.2710    3.6770    0.2300 hn        1 MOL      0.395102
     25 H9         -2.6270    6.4270    0.2220 h1        1 MOL     -0.000207
     26 H10        -0.1110    6.4390   -0.0640 hc        1 MOL      0.066162
     27 H11        -0.2410    5.2890   -1.4300 hc        1 MOL      0.066162
     28 H12        -0.7960    6.9840   -1.5320 hc        1 MOL      0.066162
     29 N3         -3.8950    4.1900   -1.5150 n         1 MOL     -0.393793
     30 C10        -4.6820    3.6980   -2.7010 c3        1 MOL      0.140649
     31 C11        -5.9180    2.8780   -2.3450 c         1 MOL      0.296171
     32 O6         -6.7930    2.6950   -3.2670 o         1 MOL     -0.564411
     33 C12        -3.8530    2.8300   -3.6190 c3        1 MOL      0.018206
     34 C13        -3.0480    1.6800   -2.9280 c         1 MOL      0.560184
     35 O7         -3.6230    0.7290   -2.3160 o         1 MOL     -0.650011
     36 O8         -1.8010    1.7130   -2.9050 o         1 MOL     -0.650011
     37 H13        -3.8070    3.5530   -0.7500 hn        1 MOL      0.210486
     38 H14        -5.0310    4.5900   -3.2330 h1        1 MOL      0.062138
     39 H15        -3.1400    3.4900   -4.1230 hc        1 MOL      0.000876
     40 H16        -4.5300    2.5040   -4.4080 hc        1 MOL      0.000876
     41 N4         -6.0600    2.3410   -1.1470 n         1 MOL     -0.059395
     42 C14        -7.2780    1.6650   -0.7960 c3        1 MOL     -0.162037
     43 C15        -7.3080    0.1090   -0.9560 c         1 MOL      0.480574
     44 O9         -8.3190   -0.5200   -0.6520 o         1 MOL     -0.621597
     45 H17        -5.4010    2.5430   -0.4210 hn        1 MOL      0.117035
     46 H18        -8.0890    2.0280   -1.4190 h1        1 MOL      0.103123
     47 H19        -7.5600    1.9210    0.2190 h1        1 MOL      0.103123
     48 N5         -6.3000   -0.5570   -1.5380 n         1 MOL     -0.135931
     49 C16        -6.2970   -1.9460   -1.9790 c3        1 MOL      0.012235
     50 C17        -6.2860   -3.0170   -0.8670 c         1 MOL      0.407523
     51 O10        -6.2850   -4.2010   -1.1860 o         1 MOL     -0.520712
     52 C18        -5.2080   -2.1500   -3.0490 c3        1 MOL     -0.200415
     53 C19        -3.7560   -2.2930   -2.6610 c         1 MOL      0.565729
     54 N6         -2.8340   -2.4570   -3.6340 n         1 MOL     -0.610457
     55 O11        -3.3520   -2.2520   -1.4770 o         1 MOL     -0.573247
     56 H20        -5.5640    0.1000   -1.7590 hn        1 MOL      0.105868
     57 H21        -7.2140   -2.0960   -2.5420 h1        1 MOL      0.106121
     58 H22        -5.1880   -1.2650   -3.6730 hc        1 MOL      0.070350
     59 H23        -5.4730   -3.0330   -3.6300 hc        1 MOL      0.070350
     60 H24        -3.1380   -2.5740   -4.5910 hn        1 MOL      0.319068
     61 H25        -1.8530   -2.4610   -3.3670 hn        1 MOL      0.319068
     62 N7         -6.3980   -2.7590    0.4050 n         1 MOL     -0.214203
     63 C20        -6.5030   -3.7330    1.4950 c3        1 MOL     -0.113304
     64 C21        -5.1580   -4.3970    1.7880 c         1 MOL      0.454319
     65 O12        -5.1580   -5.4510    2.4950 o         1 MOL     -0.560106
     66 H26        -6.5890   -1.7910    0.6430 hn        1 MOL      0.228688
     67 H27        -7.3000   -4.4520    1.3530 h1        1 MOL      0.096378
     68 H28        -6.8040   -3.2420    2.4200 h1        1 MOL      0.096378
     69 N8         -4.0290   -3.9060    1.2290 n         1 MOL     -0.308945
     70 C22        -2.6870   -4.5480    1.2420 c3        1 MOL     -0.025784
     71 C23        -1.5400   -3.5860    1.2580 c         1 MOL      0.304341
     72 O13        -1.6190   -2.4860    0.6520 o         1 MOL     -0.469823
     73 C24        -2.3870   -5.6270    0.1090 c3        1 MOL      0.510677
     74 C25        -3.3820   -6.7730    0.2650 c3        1 MOL     -0.371133
     75 O14        -2.4670   -5.1230   -1.1780 oh        1 MOL     -0.594932
     76 H29        -4.0190   -3.1080    0.6050 hn        1 MOL      0.326012
     77 H30        -2.6070   -5.1520    2.1470 h1        1 MOL      0.033961
     78 H31        -1.3940   -5.9320    0.4360 h1        1 MOL     -0.095789
     79 H32        -2.1570   -4.2250   -1.0700 ho        1 MOL      0.367825
     80 H33        -3.0910   -7.6560   -0.3110 hc        1 MOL      0.093407
     81 H34        -3.4520   -7.1480    1.2840 hc        1 MOL      0.093407
     82 H35        -4.3520   -6.3630    0.0100 hc        1 MOL      0.093407
     83 N9         -0.4330   -3.9070    1.9760 n         1 MOL     -0.191074
     84 C26         0.7270   -2.8880    2.1050 c3        1 MOL     -0.273241
     85 C27         1.6560   -3.1900    0.9600 c         1 MOL      0.555031
     86 O15         2.0590   -4.3090    0.7060 o         1 MOL     -0.586167
     87 C28         1.4080   -2.9690    3.4590 c3        1 MOL      0.138402
     88 C29         0.4030   -2.7350    4.6250 c3        1 MOL     -0.009615
     89 C30         2.5510   -1.8920    3.4750 c3        1 MOL     -0.131382
     90 C31         1.1060   -2.8150    6.0200 c3        1 MOL     -0.202794
     91 H36        -0.2880   -4.8480    2.3160 hn        1 MOL      0.253435
     92 H37         0.3830   -1.8750    1.9250 h1        1 MOL      0.196100
     93 H38         1.8320   -3.9670    3.5610 hc        1 MOL     -0.003480
     94 H39        -0.4130   -3.4390    4.4550 hc        1 MOL      0.012222
     95 H40         0.0180   -1.7110    4.5510 hc        1 MOL      0.012222
     96 H41         2.0530   -0.9280    3.3690 hc        1 MOL      0.032508
     97 H42         3.0880   -1.9070    4.4190 hc        1 MOL      0.032508
     98 H43         3.2750   -2.0200    2.6730 hc        1 MOL      0.032508
     99 H44         1.7610   -3.6860    6.0990 hc        1 MOL      0.048823
    100 H45         1.4710   -1.8530    6.3740 hc        1 MOL      0.048823
    101 H46         0.2770   -2.9560    6.7220 hc        1 MOL      0.048823
    102 N10         1.8100   -2.1180    0.1610 n         1 MOL     -0.062342
    103 C32         2.5790   -2.1190   -1.0470 c3        1 MOL      0.074763
    104 C33         4.0530   -1.7460   -0.6640 c         1 MOL      0.332187
    105 O16         4.2160   -1.0760    0.3210 o         1 MOL     -0.208240
    106 C34         1.9590   -1.2580   -2.1080 c3        1 MOL     -0.266109
    107 C35         0.5410   -1.5900   -2.5490 c         1 MOL      0.725410
    108 O17        -0.4090   -1.0930   -1.8910 o         1 MOL     -0.673378
    109 O18         0.2820   -2.2050   -3.5760 o         1 MOL     -0.673378
    110 H47         1.2810   -1.3250    0.4980 hn        1 MOL     -0.116905
    111 H48         2.5090   -3.1620   -1.3630 h1        1 MOL      0.055456
    112 H49         2.6380   -1.3580   -2.9600 hc        1 MOL      0.076342
    113 H50         1.9450   -0.2310   -1.7510 hc        1 MOL      0.076342
    114 N11         5.1170   -2.1510   -1.3660 n         1 MOL     -0.633489
    115 C36         6.5220   -1.7150   -1.0720 c3        1 MOL      0.332089
    116 C37         6.7220   -0.1930   -1.0030 c         1 MOL      0.400604
    117 O19         7.5270    0.2190   -0.1820 o         1 MOL     -0.452077
    118 C38         7.5550   -2.4090   -2.0460 c3        1 MOL     -0.163563
    119 C39         9.0470   -1.9090   -1.9070 ca        1 MOL     -0.001646
    120 C40         9.6230   -1.8760   -0.6330 ca        1 MOL     -0.095013
    121 C41         9.7080   -1.4070   -3.0300 ca        1 MOL     -0.095013
    122 C42        10.8870   -1.3400   -0.4690 ca        1 MOL     -0.187290
    123 C43        11.0340   -0.8120   -2.8740 ca        1 MOL     -0.187290
    124 C44        11.5950   -0.7230   -1.5510 ca        1 MOL     -0.025422
    125 H51         4.9490   -2.6670   -2.2170 hn        1 MOL      0.327506
    126 H52         6.7480   -2.0650   -0.0630 h1        1 MOL      0.053617
    127 H53         7.2920   -2.3390   -3.1030 hc        1 MOL      0.054785
    128 H54         7.5600   -3.4810   -1.8600 hc        1 MOL      0.054785
    129 H55         9.0810   -2.3320    0.1830 ha        1 MOL      0.105576
    130 H56         9.2300   -1.3920   -4.0050 ha        1 MOL      0.105576
    131 H57        11.3530   -1.5700    0.4770 ha        1 MOL      0.125952
    132 H58        11.5210   -0.3530   -3.7170 ha        1 MOL      0.125952
    133 H59        12.6380   -0.4640   -1.4110 ha        1 MOL      0.079714
    134 N12         6.0890    0.6610   -1.8250 n         1 MOL     -0.137952
    135 C45         6.1170    2.1310   -1.5110 c3        1 MOL      0.108953
    136 C46         5.5550    2.6330   -0.1920 c         1 MOL      0.194341
    137 O20         6.0470    3.5960    0.4010 o         1 MOL     -0.482350
    138 C47         5.3930    2.7660   -2.7430 c3        1 MOL     -0.066856
    139 C48         5.7190    1.8420   -3.8670 c3        1 MOL     -0.002568
    140 C49         5.5160    0.5210   -3.1590 c3        1 MOL     -0.105460
    141 H60         7.1900    2.3360   -1.5460 h1        1 MOL      0.039550
    142 H61         4.3060    2.7970   -2.6290 hc        1 MOL      0.055309
    143 H62         5.8030    3.7810   -2.8230 hc        1 MOL      0.055309
    144 H63         5.0460    2.0590   -4.6970 hc        1 MOL      0.019424
    145 H64         6.7450    1.8980   -4.2380 hc        1 MOL      0.019424
    146 H65         4.4430    0.3800   -3.2620 h1        1 MOL      0.063039
    147 H66         5.9240   -0.2720   -3.7930 h1        1 MOL      0.063039
    148 N13         4.5020    2.0420    0.2650 n         1 MOL     -0.002375
    149 C50         3.8720    2.3280    1.5720 c3        1 MOL     -0.308226
    150 C51         4.7810    1.8130    2.6640 c         1 MOL      0.378834
    151 O21         4.9160    2.4080    3.7820 o         1 MOL     -0.545592
    152 C52         2.5820    1.6210    1.7430 c3        1 MOL     -0.035506
    153 C53         1.6210    2.0850    0.6610 c3        1 MOL     -0.090975
    154 C54         0.2430    1.5060    0.7460 c         1 MOL      0.717720
    155 O22        -0.6020    2.0730    0.0640 o         1 MOL     -0.760433
    156 O23        -0.0660    0.4530    1.3190 o         1 MOL     -0.760433
    157 H67         4.2210    1.1830   -0.1910 hn        1 MOL      0.113100
    158 H68         3.8420    3.4070    1.7010 h1        1 MOL      0.207129
    159 H69         2.1140    1.8300    2.7010 hc        1 MOL      0.101944
    160 H70         2.7200    0.5500    1.6590 hc        1 MOL      0.101944
    161 H71         2.0840    1.7230   -0.2660 hc        1 MOL      0.046387
    162 H72         1.6180    3.1670    0.7740 hc        1 MOL      0.046387
    163 N14         5.5090    0.7440    2.3660 n         1 MOL      0.125243
    164 C55         6.3870    0.1260    3.2810 c3        1 MOL     -0.203055
    165 H73         6.2130    0.5280    4.2790 h1        1 MOL      0.063950
    166 H74         6.2090   -0.9500    3.2860 h1        1 MOL      0.063950
    167 H75         7.4180    0.3220    2.9850 h1        1 MOL      0.063950
    168 H76         5.2290    0.1620    1.5930 hn        1 MOL     -0.084339
    169 Ca1        -2.0910   -0.0120   -0.3760 Ca        1 MOL      1.729727
    170 O24        -4.0100   -0.9540    1.4690 oh        1 MOL     -1.038366
    171 H77        -4.8460   -0.5940    1.7530 ho        1 MOL      0.464785
    172 H78        -3.4870   -0.9970    2.2670 ho        1 MOL      0.464785
@<TRIPOS>BOND
     1    1    2 1   
     2    1    4 1   
     3    1    5 1   
     4    1    6 1   
     5    2    3 2   
     6    2    7 1   
     7    7    8 1   
     8    7   15 1   
     9    8    9 1   
    10    8   11 1   
    11    8   16 1   
    12    9   10 2   
    13    9   19 1   
    14   11   12 1   
    15   11   17 1   
    16   11   18 1   
    17   12   13 1   
    18   12   14 1   
    19   19   20 1   
    20   19   24 1   
    21   20   21 1   
    22   20   23 1   
    23   20   25 1   
    24   21   22 2   
    25   21   29 1   
    26   23   26 1   
    27   23   27 1   
    28   23   28 1   
    29   29   30 1   
    30   29   37 1   
    31   30   31 1   
    32   30   33 1   
    33   30   38 1   
    34   31   32 2   
    35   31   41 1   
    36   33   34 1   
    37   33   39 1   
    38   33   40 1   
    39   34   35 1   
    40   34   36 1   
    41   41   42 1   
    42   41   45 1   
    43   42   43 1   
    44   42   46 1   
    45   42   47 1   
    46   43   44 2   
    47   43   48 1   
    48   48   49 1   
    49   48   56 1   
    50   49   50 1   
    51   49   52 1   
    52   49   57 1   
    53   50   51 2   
    54   50   62 1   
    55   52   53 1   
    56   52   58 1   
    57   52   59 1   
    58   53   54 1   
    59   53   55 2   
    60   54   60 1   
    61   54   61 1   
    62   62   63 1   
    63   62   66 1   
    64   63   64 1   
    65   63   67 1   
    66   63   68 1   
    67   64   65 2   
    68   64   69 1   
    69   69   70 1   
    70   69   76 1   
    71   70   71 1   
    72   70   73 1   
    73   70   77 1   
    74   71   72 2   
    75   71   83 1   
    76   73   74 1   
    77   73   75 1   
    78   73   78 1   
    79   74   80 1   
    80   74   81 1   
    81   74   82 1   
    82   75   79 1   
    83   83   84 1   
    84   83   91 1   
    85   84   85 1   
    86   84   87 1   
    87   84   92 1   
    88   85   86 2   
    89   85  102 1   
    90   87   88 1   
    91   87   89 1   
    92   87   93 1   
    93   88   90 1   
    94   88   94 1   
    95   88   95 1   
    96   89   96 1   
    97   89   97 1   
    98   89   98 1   
    99   90   99 1   
   100   90  100 1   
   101   90  101 1   
   102  102  103 1   
   103  102  110 1   
   104  103  104 1   
   105  103  106 1   
   106  103  111 1   
   107  104  105 2   
   108  104  114 1   
   109  106  107 1   
   110  106  112 1   
   111  106  113 1   
   112  107  108 1   
   113  107  109 1   
   114  114  115 1   
   115  114  125 1   
   116  115  116 1   
   117  115  118 1   
   118  115  126 1   
   119  116  117 2   
   120  116  134 1   
   121  118  119 1   
   122  118  127 1   
   123  118  128 1   
   124  119  120 ar  
   125  119  121 ar  
   126  120  122 ar  
   127  120  129 1   
   128  121  123 ar  
   129  121  130 1   
   130  122  124 ar  
   131  122  131 1   
   132  123  124 ar  
   133  123  132 1   
   134  124  133 1   
   135  134  135 1   
   136  134  140 1   
   137  135  136 1   
   138  135  138 1   
   139  135  141 1   
   140  136  137 2   
   141  136  148 1   
   142  138  139 1   
   143  138  142 1   
   144  138  143 1   
   145  139  140 1   
   146  139  144 1   
   147  139  145 1   
   148  140  146 1   
   149  140  147 1   
   150  148  149 1   
   151  148  157 1   
   152  149  150 1   
   153  149  152 1   
   154  149  158 1   
   155  150  151 2   
   156  150  163 1   
   157  152  153 1   
   158  152  159 1   
   159  152  160 1   
   160  153  154 1   
   161  153  161 1   
   162  153  162 1   
   163  154  155 1   
   164  154  156 1   
   165  163  164 1   
   166  163  168 1   
   167  164  165 1   
   168  164  166 1   
   169  164  167 1   
   170  170  171 1   
   171  170  172 1   
@<TRIPOS>SUBSTRUCTURE
     1 MOL         1 TEMP              0 ****  ****    0 ROOT
