@<TRIPOS>MOLECULE
MOL
  189   185     1     0     0
SMALL
resp


@<TRIPOS>ATOM
      1 C1         -0.0640   -3.5070    6.1050 c3        1 MOL     -0.370849
      2 C2          0.5690   -3.1500    4.7360 c         1 MOL      0.807122
      3 O1          0.4660   -1.9740    4.4080 o         1 MOL     -0.635768
      4 H1         -0.9990   -4.0440    5.9430 hc        1 MOL      0.091041
      5 H2          0.6230   -4.1350    6.6710 hc        1 MOL      0.091041
      6 H3         -0.2650   -2.5920    6.6630 hc        1 MOL      0.091041
      7 N1          1.2520   -4.0470    4.0430 n         1 MOL     -0.669359
      8 C3          2.0010   -3.7750    2.8330 c3        1 MOL      0.267241
      9 C4          1.8640   -4.9120    1.7910 c         1 MOL      0.321564
     10 O2          1.9410   -6.1160    2.1570 o         1 MOL     -0.565674
     11 C5          3.4300   -3.4370    3.2050 c3        1 MOL     -0.177292
     12 C6          4.3050   -2.8480    2.0740 c         1 MOL      0.655311
     13 O3          5.5530   -2.8800    2.2500 o         1 MOL     -0.644695
     14 O4          3.6880   -2.4410    0.9820 o         1 MOL     -0.644695
     15 H4          1.4840   -4.9280    4.4660 hn        1 MOL      0.322201
     16 H5          1.5090   -2.8950    2.4090 h1        1 MOL     -0.035020
     17 H6          3.9510   -4.3010    3.6100 hc        1 MOL      0.030257
     18 H7          3.4440   -2.6770    3.9950 hc        1 MOL      0.030257
     19 N2          1.8190   -4.5530    0.5040 n         1 MOL     -0.008114
     20 C7          1.7830   -5.4560   -0.6160 c3        1 MOL     -0.299471
     21 C8          2.9230   -5.3370   -1.6690 c         1 MOL      0.479555
     22 O5          3.2890   -6.2920   -2.3490 o         1 MOL     -0.568598
     23 C9          0.4140   -5.4920   -1.3350 c3        1 MOL      0.184176
     24 C10         0.1160   -4.2560   -2.1480 c3        1 MOL      0.097736
     25 C11        -0.6460   -5.9330   -0.2860 c3        1 MOL     -0.213971
     26 C12        -1.2820   -4.1840   -2.7430 c3        1 MOL     -0.240149
     27 H8          1.6870   -3.5670    0.3160 hn        1 MOL      0.534867
     28 H9          1.9030   -6.4330   -0.1510 h1        1 MOL      0.120473
     29 H10         0.4390   -6.2400   -2.1250 hc        1 MOL     -0.032908
     30 H11         0.7670   -4.1550   -3.0140 hc        1 MOL      0.000186
     31 H12         0.2490   -3.3520   -1.5550 hc        1 MOL      0.000186
     32 H13        -0.7270   -5.0720    0.3760 hc        1 MOL      0.037449
     33 H14        -1.5610   -6.1530   -0.8280 hc        1 MOL      0.037449
     34 H15        -0.2570   -6.7910    0.2730 hc        1 MOL      0.037449
     35 H16        -1.4480   -3.3430   -3.4230 hc        1 MOL      0.053000
     36 H17        -1.4030   -5.1020   -3.3190 hc        1 MOL      0.053000
     37 H18        -1.9510   -4.1730   -1.8850 hc        1 MOL      0.053000
     38 N3          3.5100   -4.1320   -1.6970 n         1 MOL     -0.079163
     39 C13         4.4900   -3.7200   -2.7760 c3        1 MOL      0.022453
     40 C14         5.8860   -3.3510   -2.2540 c         1 MOL      0.403211
     41 O6          6.8960   -3.6650   -2.9270 o         1 MOL     -0.577550
     42 C15         3.8250   -2.5890   -3.6110 c3        1 MOL     -0.182104
     43 C16         3.1360   -1.4800   -2.8070 c         1 MOL      0.754577
     44 O7          3.6640   -1.2410   -1.7020 o         1 MOL     -0.722446
     45 O8          2.1330   -0.8410   -3.1150 o         1 MOL     -0.722446
     46 H19         3.3650   -3.4510   -0.9610 hn        1 MOL     -0.187026
     47 H20         4.5340   -4.6080   -3.4100 h1        1 MOL      0.083080
     48 H21         3.1190   -3.0710   -4.2780 hc        1 MOL      0.051081
     49 H22         4.5360   -2.1220   -4.2930 hc        1 MOL      0.051081
     50 N4          5.9850   -2.8620   -1.0200 n         1 MOL     -0.086298
     51 C17         7.2450   -2.3620   -0.4740 c3        1 MOL     -0.209967
     52 C18         7.5110   -0.9240   -0.7410 c         1 MOL      0.582074
     53 O9          8.5550   -0.3900   -0.3760 o         1 MOL     -0.633672
     54 H23         5.1180   -2.6360   -0.5470 hn        1 MOL      0.124925
     55 H24         8.1280   -2.9450   -0.7180 h1        1 MOL      0.103722
     56 H25         7.0260   -2.4280    0.5910 h1        1 MOL      0.103722
     57 N5          6.5940   -0.1860   -1.3430 n         1 MOL     -0.251450
     58 C19         6.8800    1.1120   -1.8930 c3        1 MOL      0.021552
     59 C20         7.0110    2.3010   -0.9120 c         1 MOL      0.340783
     60 O10         7.3680    3.4320   -1.3140 o         1 MOL     -0.544949
     61 C21         5.8770    1.4730   -2.9540 c3        1 MOL     -0.342735
     62 C22         4.5630    1.9270   -2.3450 c         1 MOL      0.824276
     63 O11         4.2130    1.6160   -1.2030 o         1 MOL     -0.729399
     64 O12         3.7340    2.5370   -3.1090 o         1 MOL     -0.729399
     65 H26         5.7310   -0.5700   -1.6950 hn        1 MOL      0.186542
     66 H27         7.8540    0.9700   -2.3490 h1        1 MOL      0.089045
     67 H28         5.6450    0.7140   -3.6970 hc        1 MOL      0.101159
     68 H29         6.3010    2.2700   -3.5650 hc        1 MOL      0.101159
     69 N6          6.6160    2.1910    0.3410 n         1 MOL      0.024801
     70 C23         6.8490    3.1640    1.3060 c3        1 MOL     -0.324655
     71 C24         5.7230    4.2130    1.5000 c         1 MOL      0.513745
     72 O13         5.9210    5.1780    2.2220 o         1 MOL     -0.577778
     73 H30         6.2800    1.2980    0.6730 hn        1 MOL      0.119644
     74 H31         7.7730    3.6530    1.0000 h1        1 MOL      0.119635
     75 H32         7.1410    2.6320    2.2170 h1        1 MOL      0.119635
     76 N7          4.5960    3.9540    0.8960 n         1 MOL     -0.264897
     77 C25         3.3380    4.6220    1.0200 c3        1 MOL      0.027140
     78 C26         2.1930    3.6330    1.1610 c         1 MOL      0.414281
     79 O14         2.4350    2.4290    0.9640 o         1 MOL     -0.462586
     80 C27         3.1080    5.5010   -0.1580 c3        1 MOL     -0.176649
     81 C28         4.1860    6.5410   -0.2030 c3        1 MOL     -0.115153
     82 C29         4.0150    7.6780   -1.1650 c         1 MOL      0.661362
     83 N8          4.0290    7.5550   -2.4730 n         1 MOL     -0.806436
     84 O15         3.7680    8.7680   -0.6830 o         1 MOL     -0.602877
     85 H33         4.6260    3.2290    0.2010 hn        1 MOL      0.240061
     86 H34         3.2900    5.2230    1.9380 h1        1 MOL      0.061337
     87 H35         2.1310    5.9840   -0.2210 hc        1 MOL      0.076558
     88 H36         3.1880    4.9090   -1.0570 hc        1 MOL      0.076558
     89 H37         5.1140    6.0350   -0.4670 hc        1 MOL      0.071998
     90 H38         4.3280    7.0300    0.7620 hc        1 MOL      0.071998
     91 H39         4.0670    6.6400   -2.9070 hn        1 MOL      0.361734
     92 H40         3.6080    8.3140   -2.9960 hn        1 MOL      0.361734
     93 N9          0.9590    4.1480    1.5100 n         1 MOL     -0.374751
     94 C30        -0.2360    3.2860    1.6160 c3        1 MOL     -0.000500
     95 C31        -1.3000    3.6350    0.5470 c         1 MOL      0.427406
     96 O16        -1.8880    4.7230    0.5650 o         1 MOL     -0.531926
     97 C32        -0.7430    3.2460    3.0640 c3        1 MOL      0.174281
     98 C33        -1.7050    2.1220    3.4310 c3        1 MOL     -0.289176
     99 C34         0.3200    2.8880    4.1220 c3        1 MOL     -0.289176
    100 H41         0.9220    5.1360    1.7230 hn        1 MOL      0.267306
    101 H42         0.1350    2.2780    1.4360 h1        1 MOL      0.141323
    102 H43        -1.2460    4.1810    3.3230 hc        1 MOL     -0.005371
    103 H44        -2.7310    2.3140    3.1150 hc        1 MOL      0.060099
    104 H45        -1.3930    1.1670    3.0100 hc        1 MOL      0.060099
    105 H46        -1.8660    1.9090    4.4850 hc        1 MOL      0.060099
    106 H47        -0.1150    2.8350    5.1130 hc        1 MOL      0.060099
    107 H48         0.6910    1.8810    3.9410 hc        1 MOL      0.060099
    108 H49         1.1910    3.5470    4.0950 hc        1 MOL      0.060099
    109 N10        -1.4750    2.6100   -0.3400 n         1 MOL     -0.313100
    110 C35        -2.6310    2.6120   -1.3120 c3        1 MOL      0.160391
    111 C36        -4.0220    2.1420   -0.7430 c         1 MOL      0.223935
    112 O17        -3.9650    1.5790    0.3830 o         1 MOL     -0.253111
    113 C37        -2.1940    2.0040   -2.5870 c3        1 MOL     -0.148101
    114 C38        -2.3400    0.5280   -2.5190 c         1 MOL      0.541122
    115 N11        -1.4190   -0.2730   -2.0710 n         1 MOL     -0.503582
    116 O18        -3.3880    0.0290   -2.9080 o         1 MOL     -0.560195
    117 H50        -1.0010    1.7250   -0.2200 hn        1 MOL      0.219206
    118 H51        -2.7730    3.6620   -1.5790 h1        1 MOL      0.037776
    119 H52        -1.1140    2.1990   -2.6330 hc        1 MOL      0.056100
    120 H53        -2.7540    2.4160   -3.4180 hc        1 MOL      0.056100
    121 H54        -0.5640    0.1140   -1.6780 hn        1 MOL      0.285516
    122 H55        -1.5800   -1.2480   -1.9110 hn        1 MOL      0.285516
    123 N12        -5.1510    2.3420   -1.4070 n         1 MOL     -0.343888
    124 C39        -6.4050    2.0370   -0.7560 c3        1 MOL      0.078305
    125 C40        -6.4730    0.5380   -0.2700 c         1 MOL      0.602473
    126 O19        -7.0030    0.2870    0.7740 o         1 MOL     -0.597493
    127 C41        -7.5960    2.3550   -1.6380 c3        1 MOL     -0.185769
    128 C42        -8.9740    2.1290   -1.1170 ca        1 MOL      0.360275
    129 C43        -9.4840    2.9960   -0.1050 ca        1 MOL     -0.407121
    130 C44        -9.8850    1.2820   -1.7330 ca        1 MOL     -0.407121
    131 C45       -10.7670    2.7170    0.4500 ca        1 MOL     -0.032163
    132 C46       -11.1830    1.0510   -1.2180 ca        1 MOL     -0.032163
    133 C47       -11.6400    1.7830   -0.1230 ca        1 MOL      0.138899
    134 O20       -12.8430    1.5430    0.4640 oh        1 MOL     -0.541730
    135 H56        -5.1460    2.7770   -2.3260 hn        1 MOL      0.290634
    136 H57        -6.5810    2.5900    0.1630 h1        1 MOL      0.016192
    137 H58        -7.4330    1.7330   -2.5180 hc        1 MOL      0.055430
    138 H59        -7.5820    3.3650   -2.0260 hc        1 MOL      0.055430
    139 H60        -8.7540    3.5850    0.4260 ha        1 MOL      0.173542
    140 H61        -9.5120    0.8060   -2.6320 ha        1 MOL      0.173542
    141 H62       -11.1290    3.2860    1.2940 ha        1 MOL      0.086800
    142 H63       -11.8970    0.4010   -1.6910 ha        1 MOL      0.086800
    143 H64       -13.2160    0.7330    0.1200 ho        1 MOL      0.405389
    144 N13        -6.0440   -0.4050   -1.0550 n         1 MOL     -0.150195
    145 C48        -6.0440   -1.8430   -0.7150 c3        1 MOL     -0.040826
    146 C49        -5.2830   -2.1840    0.5010 c         1 MOL      0.333939
    147 O21        -5.5560   -3.1810    1.2470 o         1 MOL     -0.553537
    148 C50        -5.4820   -2.6020   -1.9050 c3        1 MOL     -0.028478
    149 C51        -6.6330   -3.1700   -2.7160 c3        1 MOL     -0.065544
    150 C52        -7.3510   -1.9920   -3.3860 c         1 MOL      0.521270
    151 O22        -6.7880   -1.2550   -4.2420 o         1 MOL     -0.663332
    152 O23        -8.5050   -1.6760   -2.9250 o         1 MOL     -0.663332
    153 H65        -5.6260   -0.1100   -1.9290 hn        1 MOL      0.158108
    154 H66        -7.0640   -2.1530   -0.4710 h1        1 MOL      0.123828
    155 H67        -4.9740   -3.5040   -1.5770 hc        1 MOL      0.044634
    156 H68        -4.7830   -2.0450   -2.5280 hc        1 MOL      0.044634
    157 H69        -7.3210   -3.6780   -2.0330 hc        1 MOL     -0.017255
    158 H70        -6.1270   -3.9040   -3.3470 hc        1 MOL     -0.017255
    159 N14        -4.3140   -1.3820    0.8800 n         1 MOL     -0.082436
    160 C53        -3.5720   -1.5550    2.1170 c3        1 MOL     -0.051794
    161 C54        -4.2520   -0.8520    3.3060 c         1 MOL      0.486169
    162 O24        -4.3080   -1.3870    4.4150 o         1 MOL     -0.568147
    163 C55        -2.1450   -1.1570    1.8890 c3        1 MOL      0.027048
    164 C56        -1.3040   -1.9720    0.9130 c3        1 MOL     -0.121508
    165 C57        -0.0490   -1.2290    0.5360 c         1 MOL      0.756415
    166 O25         0.9550   -1.8850    0.2190 o         1 MOL     -0.759802
    167 O26         0.0470    0.0230    0.5630 o         1 MOL     -0.759802
    168 H71        -4.1590   -0.5400    0.3380 hn        1 MOL      0.069300
    169 H72        -3.5110   -2.6170    2.3680 h1        1 MOL      0.055909
    170 H73        -1.6160   -1.0930    2.8390 hc        1 MOL      0.053515
    171 H74        -2.1430   -0.1600    1.4590 hc        1 MOL      0.053515
    172 H75        -1.8160   -2.2760   -0.0010 hc        1 MOL     -0.004163
    173 H76        -1.0320   -2.8350    1.5200 hc        1 MOL     -0.004163
    174 N15        -4.7760    0.3580    3.0150 n         1 MOL      0.008601
    175 C58        -5.6020    1.1270    3.8590 c3        1 MOL     -0.394371
    176 H77        -6.5260    0.5840    4.0570 h1        1 MOL      0.115777
    177 H78        -5.0850    1.3170    4.8000 h1        1 MOL      0.115777
    178 H79        -5.8360    2.0750    3.3750 h1        1 MOL      0.115777
    179 H80        -4.6190    0.7700    2.0990 hn        1 MOL      0.057166
    180 Ca1         2.7680   -0.0730    0.3210 Ca        1 MOL      1.745652
    181 O27         1.9620   -0.3260    3.0050 oh        1 MOL     -0.903720
    182 H81         1.2780   -0.8280    3.4440 ho        1 MOL      0.433359
    183 H82         2.4420    0.0970    3.7090 ho        1 MOL      0.433359
    184 O28         1.6250    1.3530   -1.7390 oh        1 MOL     -0.903720
    185 H83         1.7850    0.6010   -2.3060 ho        1 MOL      0.433359
    186 H84         2.2930    1.9910   -1.9790 ho        1 MOL      0.433359
    187 O29         4.8690    0.4320    2.1090 oh        1 MOL     -0.903720
    188 H85         4.8720    0.8190    2.9850 ho        1 MOL      0.433359
    189 H86         5.7000   -0.0590    2.0700 ho        1 MOL      0.433359
@<TRIPOS>BOND
     1    1    2 1   
     2    1    4 1   
     3    1    5 1   
     4    1    6 1   
     5    2    3 2   
     6    2    7 1   
     7    7    8 1   
     8    7   15 1   
     9    8    9 1   
    10    8   11 1   
    11    8   16 1   
    12    9   10 2   
    13    9   19 1   
    14   11   12 1   
    15   11   17 1   
    16   11   18 1   
    17   12   13 1   
    18   12   14 1   
    19   19   20 1   
    20   19   27 1   
    21   20   21 1   
    22   20   23 1   
    23   20   28 1   
    24   21   22 2   
    25   21   38 1   
    26   23   24 1   
    27   23   25 1   
    28   23   29 1   
    29   24   26 1   
    30   24   30 1   
    31   24   31 1   
    32   25   32 1   
    33   25   33 1   
    34   25   34 1   
    35   26   35 1   
    36   26   36 1   
    37   26   37 1   
    38   38   39 1   
    39   38   46 1   
    40   39   40 1   
    41   39   42 1   
    42   39   47 1   
    43   40   41 2   
    44   40   50 1   
    45   42   43 1   
    46   42   48 1   
    47   42   49 1   
    48   43   44 1   
    49   43   45 1   
    50   50   51 1   
    51   50   54 1   
    52   51   52 1   
    53   51   55 1   
    54   51   56 1   
    55   52   53 2   
    56   52   57 1   
    57   57   58 1   
    58   57   65 1   
    59   58   59 1   
    60   58   61 1   
    61   58   66 1   
    62   59   60 2   
    63   59   69 1   
    64   61   62 1   
    65   61   67 1   
    66   61   68 1   
    67   62   63 1   
    68   62   64 1   
    69   69   70 1   
    70   69   73 1   
    71   70   71 1   
    72   70   74 1   
    73   70   75 1   
    74   71   72 2   
    75   71   76 1   
    76   76   77 1   
    77   76   85 1   
    78   77   78 1   
    79   77   80 1   
    80   77   86 1   
    81   78   79 2   
    82   78   93 1   
    83   80   81 1   
    84   80   87 1   
    85   80   88 1   
    86   81   82 1   
    87   81   89 1   
    88   81   90 1   
    89   82   83 1   
    90   82   84 2   
    91   83   91 1   
    92   83   92 1   
    93   93   94 1   
    94   93  100 1   
    95   94   95 1   
    96   94   97 1   
    97   94  101 1   
    98   95   96 2   
    99   95  109 1   
   100   97   98 1   
   101   97   99 1   
   102   97  102 1   
   103   98  103 1   
   104   98  104 1   
   105   98  105 1   
   106   99  106 1   
   107   99  107 1   
   108   99  108 1   
   109  109  110 1   
   110  109  117 1   
   111  110  111 1   
   112  110  113 1   
   113  110  118 1   
   114  111  112 2   
   115  111  123 1   
   116  113  114 1   
   117  113  119 1   
   118  113  120 1   
   119  114  115 1   
   120  114  116 2   
   121  115  121 1   
   122  115  122 1   
   123  123  124 1   
   124  123  135 1   
   125  124  125 1   
   126  124  127 1   
   127  124  136 1   
   128  125  126 2   
   129  125  144 1   
   130  127  128 1   
   131  127  137 1   
   132  127  138 1   
   133  128  129 ar  
   134  128  130 ar  
   135  129  131 ar  
   136  129  139 1   
   137  130  132 ar  
   138  130  140 1   
   139  131  133 ar  
   140  131  141 1   
   141  132  133 ar  
   142  132  142 1   
   143  133  134 1   
   144  134  143 1   
   145  144  145 1   
   146  144  153 1   
   147  145  146 1   
   148  145  148 1   
   149  145  154 1   
   150  146  147 2   
   151  146  159 1   
   152  148  149 1   
   153  148  155 1   
   154  148  156 1   
   155  149  150 1   
   156  149  157 1   
   157  149  158 1   
   158  150  151 1   
   159  150  152 1   
   160  159  160 1   
   161  159  168 1   
   162  160  161 1   
   163  160  163 1   
   164  160  169 1   
   165  161  162 2   
   166  161  174 1   
   167  163  164 1   
   168  163  170 1   
   169  163  171 1   
   170  164  165 1   
   171  164  172 1   
   172  164  173 1   
   173  165  166 1   
   174  165  167 1   
   175  174  175 1   
   176  174  179 1   
   177  175  176 1   
   178  175  177 1   
   179  175  178 1   
   180  181  182 1   
   181  181  183 1   
   182  184  185 1   
   183  184  186 1   
   184  187  188 1   
   185  187  189 1   
@<TRIPOS>SUBSTRUCTURE
     1 MOL         1 TEMP              0 ****  ****    0 ROOT
