@<TRIPOS>MOLECULE
MOL
  179   176     1     0     0
SMALL
resp


@<TRIPOS>ATOM
      1 C1         -0.4140    5.1530    5.2740 c3        1 MOL     -0.383316
      2 C2         -0.4700    4.7070    3.8310 c         1 MOL      0.655890
      3 O1          0.4520    5.0150    3.0760 o         1 MOL     -0.571315
      4 H1         -0.5200    4.2860    5.9260 hc        1 MOL      0.103468
      5 H2          0.5420    5.6370    5.4690 hc        1 MOL      0.103468
      6 H3         -1.2250    5.8550    5.4700 hc        1 MOL      0.103468
      7 N1         -1.5400    4.0460    3.3940 n         1 MOL     -0.540933
      8 C3         -1.5540    3.4280    2.0450 c3        1 MOL      0.065360
      9 C4         -2.1750    4.4530    1.1110 c         1 MOL      0.368245
     10 O2         -3.3870    4.6310    1.1700 o         1 MOL     -0.515679
     11 C5         -2.3400    2.1220    2.0350 c3        1 MOL     -0.208682
     12 C6         -2.1850    1.2530    0.7760 c         1 MOL      0.798391
     13 O3         -1.3880    1.7030   -0.0480 o         1 MOL     -0.795488
     14 O4         -2.9170    0.2580    0.6320 o         1 MOL     -0.795488
     15 H4         -2.1810    3.7120    4.1080 hn        1 MOL      0.326913
     16 H5         -0.5400    3.2440    1.6870 h1        1 MOL      0.079150
     17 H6         -3.4130    2.2960    2.1110 hc        1 MOL      0.076868
     18 H7         -2.0330    1.4870    2.8680 hc        1 MOL      0.076868
     19 N2         -1.5000    4.8820    0.0470 n         1 MOL     -0.020817
     20 C7         -1.9800    6.0350   -0.8140 c3        1 MOL     -0.120231
     21 C8         -2.9340    5.6010   -1.9870 c         1 MOL      0.437992
     22 O5         -3.5770    6.4180   -2.6160 o         1 MOL     -0.553320
     23 C9         -0.8030    6.9340   -1.1910 c3        1 MOL     -0.130258
     24 C10         0.1870    7.1830   -0.0480 c3        1 MOL      0.022365
     25 C11        -0.4290    8.0320    1.0170 c3        1 MOL     -0.162654
     26 C12         0.6340    8.1650    2.0770 c3        1 MOL      0.146007
     27 N3          0.2210    8.9730    3.2360 n4        1 MOL     -0.380647
     28 H8         -0.5190    4.6590   -0.0580 hn        1 MOL      0.251526
     29 H9         -2.6750    6.6880   -0.2700 h1        1 MOL      0.099050
     30 H10        -1.1520    7.8870   -1.5830 hc        1 MOL      0.085384
     31 H11        -0.2440    6.4440   -1.9880 hc        1 MOL      0.085384
     32 H12         0.9820    7.6810   -0.6040 hc        1 MOL      0.016281
     33 H13         0.5040    6.2070    0.3120 hc        1 MOL      0.016281
     34 H14        -1.3080    7.5210    1.4060 hc        1 MOL      0.071755
     35 H15        -0.6830    8.9850    0.5570 hc        1 MOL      0.071755
     36 H16         1.5360    8.5730    1.6300 hx        1 MOL      0.059593
     37 H17         0.9880    7.2390    2.5250 hx        1 MOL      0.059593
     38 H18         1.0060    9.2860    3.7840 hn        1 MOL      0.319205
     39 H19        -0.3110    9.8030    3.0180 hn        1 MOL      0.319205
     40 H20        -0.3570    8.4040    3.8440 hn        1 MOL      0.319205
     41 N4         -3.0600    4.3410   -2.2570 n         1 MOL     -0.208342
     42 C13        -4.1100    3.7760   -3.0860 c3        1 MOL      0.237308
     43 C14        -5.2840    3.2930   -2.2150 c         1 MOL      0.297044
     44 O6         -6.4430    3.5560   -2.5740 o         1 MOL     -0.506754
     45 C15        -3.5220    2.6940   -3.9660 c3        1 MOL     -0.373066
     46 C16        -2.7610    1.7240   -3.1260 c         1 MOL      0.819135
     47 O7         -3.3180    0.7810   -2.5350 o         1 MOL     -0.753426
     48 O8         -1.4800    1.7680   -3.0910 o         1 MOL     -0.753426
     49 H21        -2.4390    3.7830   -1.6840 hn        1 MOL      0.105731
     50 H22        -4.4730    4.4690   -3.8480 h1        1 MOL      0.074375
     51 H23        -2.8260    3.1830   -4.6500 hc        1 MOL      0.090988
     52 H24        -4.3670    2.1720   -4.4310 hc        1 MOL      0.090988
     53 N5         -4.9580    2.9550   -0.9490 n         1 MOL      0.079058
     54 C17        -5.9410    2.5610    0.0420 c3        1 MOL     -0.207127
     55 C18        -6.5260    1.1530   -0.0940 c         1 MOL      0.514869
     56 O9         -7.6560    0.9760    0.4110 o         1 MOL     -0.594119
     57 H25        -4.0250    3.0410   -0.5810 hn        1 MOL     -0.034256
     58 H26        -6.8310    3.1660   -0.1180 h1        1 MOL      0.106075
     59 H27        -5.5900    2.7150    1.0670 h1        1 MOL      0.106075
     60 N6         -5.8020    0.2400   -0.6690 n         1 MOL     -0.201348
     61 C19        -6.3320   -1.1120   -0.8530 c3        1 MOL      0.047542
     62 C20        -5.9740   -2.1060    0.2520 c         1 MOL      0.283491
     63 O10        -6.1360   -3.2910    0.0850 o         1 MOL     -0.396352
     64 C21        -5.8380   -1.6730   -2.2180 c3        1 MOL     -0.308736
     65 C22        -4.4890   -2.2510   -2.2380 c         1 MOL      0.635567
     66 N7         -4.2460   -3.2740   -3.0320 n         1 MOL     -0.667412
     67 O11        -3.5640   -1.9580   -1.4810 o         1 MOL     -0.543468
     68 H28        -4.8680    0.5210   -0.9320 hn        1 MOL      0.187589
     69 H29        -7.4120   -1.1540   -0.9500 h1        1 MOL      0.144995
     70 H30        -6.0140   -0.8600   -2.9170 hc        1 MOL      0.096443
     71 H31        -6.5090   -2.4750   -2.5490 hc        1 MOL      0.096443
     72 H32        -5.0700   -3.6010   -3.5160 hn        1 MOL      0.332443
     73 H33        -3.3150   -3.6260   -3.2190 hn        1 MOL      0.332443
     74 N8         -5.5280   -1.6410    1.4150 n         1 MOL     -0.351430
     75 C23        -5.3290   -2.6060    2.6610 c3        1 MOL     -0.142429
     76 C24        -3.9830   -3.4140    2.6030 c         1 MOL      0.372490
     77 O12        -3.7590   -4.2720    3.4210 o         1 MOL     -0.525113
     78 H34        -5.2710   -0.6750    1.4860 hn        1 MOL      0.302984
     79 H35        -6.1360   -3.3440    2.7070 h1        1 MOL      0.133409
     80 H36        -5.4100   -2.0100    3.5750 h1        1 MOL      0.133409
     81 N9         -3.1860   -3.3200    1.5050 n         1 MOL     -0.070991
     82 C25        -1.8920   -4.0220    1.5270 c3        1 MOL      0.393901
     83 C26        -0.7710   -2.9700    1.1680 c         1 MOL      0.172159
     84 O13        -1.0120   -2.0460    0.3850 o         1 MOL     -0.601170
     85 C27        -1.9960   -5.1540    0.5610 c3        1 MOL      0.013325
     86 C28        -3.0740   -6.1580    0.7630 ca        1 MOL      0.111084
     87 C29        -4.3650   -5.9610    0.1210 ca        1 MOL     -0.276076
     88 C30        -2.9060   -7.3730    1.4900 ca        1 MOL     -0.276076
     89 C31        -5.3340   -6.8870    0.2630 ca        1 MOL     -0.132844
     90 C32        -3.9380   -8.3400    1.5900 ca        1 MOL     -0.132844
     91 C33        -5.1350   -8.1050    0.9240 ca        1 MOL      0.266876
     92 O14        -6.1380   -9.0680    0.8660 oh        1 MOL     -0.508006
     93 H37        -3.3660   -2.7150    0.7220 hn        1 MOL      0.171746
     94 H38        -1.6720   -4.4430    2.5050 h1        1 MOL     -0.031396
     95 H39        -1.0700   -5.7140    0.6640 hc        1 MOL     -0.018332
     96 H40        -2.0130   -4.8350   -0.4780 hc        1 MOL     -0.018332
     97 H41        -4.5690   -5.1340   -0.5460 ha        1 MOL      0.143624
     98 H42        -2.0120   -7.4570    2.1000 ha        1 MOL      0.143624
     99 H43        -6.2470   -6.7100   -0.2770 ha        1 MOL      0.107561
    100 H44        -3.7420   -9.2620    2.1300 ha        1 MOL      0.107561
    101 H45        -5.9350   -9.9120    1.2840 ho        1 MOL      0.366937
    102 N10         0.4710   -3.2030    1.6740 n         1 MOL     -0.372759
    103 C34         1.6690   -2.3280    1.4080 c3        1 MOL     -0.077982
    104 C35         2.8460   -3.3250    1.1580 c         1 MOL      0.534229
    105 O15         3.1130   -4.1790    2.0190 o         1 MOL     -0.541583
    106 C36         1.9010   -1.3210    2.4900 c3        1 MOL      0.148872
    107 C37         1.0750   -0.0270    2.3860 c3        1 MOL      0.021952
    108 C38         3.3480   -0.9130    2.6140 c3        1 MOL      0.068975
    109 C39         1.0700    0.9740    3.4950 c3        1 MOL     -0.092807
    110 H46         0.6610   -4.0070    2.2520 hn        1 MOL      0.306505
    111 H47         1.4990   -1.8000    0.4640 h1        1 MOL     -0.024903
    112 H48         1.6880   -1.7850    3.4560 hc        1 MOL     -0.017443
    113 H49         0.0630   -0.2320    2.0250 hc        1 MOL      0.049961
    114 H50         1.5920    0.5210    1.5960 hc        1 MOL      0.049961
    115 H51         3.5400   -0.3960    3.5490 hc        1 MOL     -0.020984
    116 H52         3.8890   -1.8400    2.8130 hc        1 MOL     -0.020984
    117 H53         3.6980   -0.2710    1.8030 hc        1 MOL     -0.020984
    118 H54         0.8970    0.3820    4.3980 hc        1 MOL      0.010676
    119 H55         1.9710    1.5810    3.6080 hc        1 MOL      0.010676
    120 H56         0.1870    1.5920    3.3520 hc        1 MOL      0.010676
    121 N11         3.4830   -3.1710    0.0040 n         1 MOL     -0.278012
    122 C40         4.8040   -3.6080   -0.4190 c3        1 MOL     -0.071834
    123 C41         5.9960   -2.9320    0.2840 c         1 MOL      0.472290
    124 O16         5.8280   -1.8690    0.8180 o         1 MOL     -0.354432
    125 C42         4.9230   -3.3470   -1.9710 c3        1 MOL     -0.022650
    126 O17         5.0140   -2.0010   -2.3110 oh        1 MOL     -0.464161
    127 H57         3.0300   -2.5150   -0.6180 hn        1 MOL      0.183201
    128 H58         4.8120   -4.6770   -0.2140 h1        1 MOL      0.070266
    129 H59         3.9980   -3.7540   -2.3610 h1        1 MOL      0.069559
    130 H60         5.7640   -3.9020   -2.3990 h1        1 MOL      0.069559
    131 H61         4.1390   -1.5970   -2.2660 ho        1 MOL      0.339317
    132 N12         7.1640   -3.5040    0.0690 n         1 MOL     -0.473461
    133 C43         8.4130   -2.9150    0.5080 c3        1 MOL      0.232170
    134 C44         8.6550   -1.5050   -0.0970 c         1 MOL      0.405372
    135 O18         8.8330   -0.4870    0.5060 o         1 MOL     -0.512408
    136 C45         9.5590   -3.7960    0.2390 c3        1 MOL     -0.110759
    137 H62         7.1580   -4.3470   -0.4880 hn        1 MOL      0.289043
    138 H63         8.3800   -2.7260    1.5780 h1        1 MOL      0.043432
    139 H64         9.6660   -3.7020   -0.8410 hc        1 MOL      0.025862
    140 H65        10.4400   -3.4150    0.7400 hc        1 MOL      0.025862
    141 H66         9.3500   -4.7780    0.6540 hc        1 MOL      0.025862
    142 N13         8.4180   -1.4060   -1.3830 n         1 MOL     -0.227671
    143 C46         8.6490   -0.2120   -2.2260 c3        1 MOL     -0.011736
    144 C47         7.8030    1.0470   -1.7800 c         1 MOL      0.403554
    145 O19         8.1680    2.2370   -1.9060 o         1 MOL     -0.497651
    146 C48         8.3470   -0.6130   -3.6760 c3        1 MOL     -0.261655
    147 H67         8.0090   -2.2200   -1.8100 hn        1 MOL      0.239178
    148 H68         9.6840    0.0580   -1.9960 h1        1 MOL      0.097814
    149 H69         8.7240    0.1470   -4.3560 hc        1 MOL      0.078346
    150 H70         8.9900   -1.4810   -3.8070 hc        1 MOL      0.078346
    151 H71         7.2630   -0.7440   -3.7030 hc        1 MOL      0.078346
    152 N14         6.5540    0.7320   -1.3500 n         1 MOL     -0.070557
    153 C49         5.6470    1.7140   -0.7210 c3        1 MOL     -0.046520
    154 C50         6.1680    1.9760    0.7180 c         1 MOL      0.267857
    155 O20         6.4610    3.1790    1.0510 o         1 MOL     -0.528068
    156 C51         4.2280    1.1170   -0.6020 c3        1 MOL      0.161270
    157 C52         3.5100    0.8970   -1.9550 c3        1 MOL     -0.214213
    158 C53         2.2660   -0.0390   -1.8720 c         1 MOL      0.785464
    159 O21         2.4670   -1.3050   -1.9210 o         1 MOL     -0.673177
    160 O22         1.1330    0.4610   -1.6650 o         1 MOL     -0.673177
    161 H72         6.2720   -0.2420   -1.3430 hn        1 MOL      0.085711
    162 H73         5.6010    2.6470   -1.2830 h1        1 MOL      0.091904
    163 H74         3.6480    1.7490    0.0800 hc        1 MOL     -0.019939
    164 H75         4.3940    0.1440   -0.1290 hc        1 MOL     -0.019939
    165 H76         4.2810    0.4230   -2.5740 hc        1 MOL      0.028819
    166 H77         3.1720    1.8140   -2.4270 hc        1 MOL      0.028819
    167 N15         6.5870    0.9280    1.4140 n         1 MOL      0.222104
    168 C54         6.9500    1.1340    2.7880 c3        1 MOL     -0.280916
    169 H78         6.8130    0.2050    3.3430 h1        1 MOL      0.091652
    170 H79         7.9950    1.4400    2.8460 h1        1 MOL      0.091652
    171 H80         6.3200    1.9110    3.2190 h1        1 MOL      0.091652
    172 H81         6.4770   -0.0000    1.0230 hn        1 MOL     -0.081813
    173 Ca1        -1.2700   -0.4730   -1.5450 Ca        1 MOL      1.824814
    174 O23        -1.1700   -1.3050   -4.0650 oh        1 MOL     -0.886721
    175 H82        -1.7910   -1.3640   -4.7970 ho        1 MOL      0.425193
    176 H83        -0.3310   -1.5520   -4.4460 ho        1 MOL      0.425193
    177 O24         0.4360   -2.5530   -2.0100 oh        1 MOL     -0.886721
    178 H84         0.4880   -3.4680   -1.7400 ho        1 MOL      0.425193
    179 H85         1.3420   -2.2500   -2.0160 ho        1 MOL      0.425193
@<TRIPOS>BOND
     1    1    2 1   
     2    1    4 1   
     3    1    5 1   
     4    1    6 1   
     5    2    3 2   
     6    2    7 1   
     7    7    8 1   
     8    7   15 1   
     9    8    9 1   
    10    8   11 1   
    11    8   16 1   
    12    9   10 2   
    13    9   19 1   
    14   11   12 1   
    15   11   17 1   
    16   11   18 1   
    17   12   13 1   
    18   12   14 1   
    19   19   20 1   
    20   19   28 1   
    21   20   21 1   
    22   20   23 1   
    23   20   29 1   
    24   21   22 2   
    25   21   41 1   
    26   23   24 1   
    27   23   30 1   
    28   23   31 1   
    29   24   25 1   
    30   24   32 1   
    31   24   33 1   
    32   25   26 1   
    33   25   34 1   
    34   25   35 1   
    35   26   27 1   
    36   26   36 1   
    37   26   37 1   
    38   27   38 1   
    39   27   39 1   
    40   27   40 1   
    41   41   42 1   
    42   41   49 1   
    43   42   43 1   
    44   42   45 1   
    45   42   50 1   
    46   43   44 2   
    47   43   53 1   
    48   45   46 1   
    49   45   51 1   
    50   45   52 1   
    51   46   47 1   
    52   46   48 1   
    53   53   54 1   
    54   53   57 1   
    55   54   55 1   
    56   54   58 1   
    57   54   59 1   
    58   55   56 2   
    59   55   60 1   
    60   60   61 1   
    61   60   68 1   
    62   61   62 1   
    63   61   64 1   
    64   61   69 1   
    65   62   63 2   
    66   62   74 1   
    67   64   65 1   
    68   64   70 1   
    69   64   71 1   
    70   65   66 1   
    71   65   67 2   
    72   66   72 1   
    73   66   73 1   
    74   74   75 1   
    75   74   78 1   
    76   75   76 1   
    77   75   79 1   
    78   75   80 1   
    79   76   77 2   
    80   76   81 1   
    81   81   82 1   
    82   81   93 1   
    83   82   83 1   
    84   82   85 1   
    85   82   94 1   
    86   83   84 2   
    87   83  102 1   
    88   85   86 1   
    89   85   95 1   
    90   85   96 1   
    91   86   87 ar  
    92   86   88 ar  
    93   87   89 ar  
    94   87   97 1   
    95   88   90 ar  
    96   88   98 1   
    97   89   91 ar  
    98   89   99 1   
    99   90   91 ar  
   100   90  100 1   
   101   91   92 1   
   102   92  101 1   
   103  102  103 1   
   104  102  110 1   
   105  103  104 1   
   106  103  106 1   
   107  103  111 1   
   108  104  105 2   
   109  104  121 1   
   110  106  107 1   
   111  106  108 1   
   112  106  112 1   
   113  107  109 1   
   114  107  113 1   
   115  107  114 1   
   116  108  115 1   
   117  108  116 1   
   118  108  117 1   
   119  109  118 1   
   120  109  119 1   
   121  109  120 1   
   122  121  122 1   
   123  121  127 1   
   124  122  123 1   
   125  122  125 1   
   126  122  128 1   
   127  123  124 2   
   128  123  132 1   
   129  125  126 1   
   130  125  129 1   
   131  125  130 1   
   132  126  131 1   
   133  132  133 1   
   134  132  137 1   
   135  133  134 1   
   136  133  136 1   
   137  133  138 1   
   138  134  135 2   
   139  134  142 1   
   140  136  139 1   
   141  136  140 1   
   142  136  141 1   
   143  142  143 1   
   144  142  147 1   
   145  143  144 1   
   146  143  146 1   
   147  143  148 1   
   148  144  145 2   
   149  144  152 1   
   150  146  149 1   
   151  146  150 1   
   152  146  151 1   
   153  152  153 1   
   154  152  161 1   
   155  153  154 1   
   156  153  156 1   
   157  153  162 1   
   158  154  155 2   
   159  154  167 1   
   160  156  157 1   
   161  156  163 1   
   162  156  164 1   
   163  157  158 1   
   164  157  165 1   
   165  157  166 1   
   166  158  159 1   
   167  158  160 1   
   168  167  168 1   
   169  167  172 1   
   170  168  169 1   
   171  168  170 1   
   172  168  171 1   
   173  174  175 1   
   174  174  176 1   
   175  177  178 1   
   176  177  179 1   
@<TRIPOS>SUBSTRUCTURE
     1 MOL         1 TEMP              0 ****  ****    0 ROOT
