@<TRIPOS>MOLECULE
MOL
  182   178     1     0     0
SMALL
resp


@<TRIPOS>ATOM
      1 C1         -1.8970   -3.2030    5.5220 c3        1 MOL     -0.352640
      2 C2         -1.2990   -2.7830    4.1590 c         1 MOL      0.708200
      3 O1         -2.0170   -2.4540    3.2210 o         1 MOL     -0.593993
      4 H1         -2.0800   -4.2780    5.5220 hc        1 MOL      0.098925
      5 H2         -1.1970   -2.9530    6.3190 hc        1 MOL      0.098925
      6 H3         -2.8370   -2.6760    5.6850 hc        1 MOL      0.098925
      7 N1          0.0370   -2.7730    3.8700 n         1 MOL     -0.599138
      8 C3          0.7340   -2.5380    2.5770 c3        1 MOL      0.074045
      9 C4          0.9690   -3.8170    1.7120 c         1 MOL      0.510309
     10 O2          1.8790   -4.5670    2.1080 o         1 MOL     -0.548738
     11 C5          1.9940   -1.7000    2.9020 c3        1 MOL     -0.168716
     12 C6          2.8310   -1.4240    1.6670 c         1 MOL      0.714849
     13 O3          4.0080   -0.9540    1.7500 o         1 MOL     -0.750239
     14 O4          2.3720   -1.6670    0.5600 o         1 MOL     -0.750239
     15 H4          0.6600   -2.7640    4.6630 hn        1 MOL      0.306634
     16 H5          0.1040   -1.9620    1.8960 h1        1 MOL     -0.001981
     17 H6          2.6190   -2.3100    3.5520 hc        1 MOL      0.069183
     18 H7          1.7870   -0.8280    3.5310 hc        1 MOL      0.069183
     19 N2          0.3540   -3.9440    0.5230 n         1 MOL     -0.245422
     20 C7          0.3110   -5.2420   -0.2040 c3        1 MOL     -0.091118
     21 C8          1.6190   -5.5790   -0.9660 c         1 MOL      0.549509
     22 O5          1.6300   -6.5850   -1.7440 o         1 MOL     -0.600379
     23 C9         -0.9030   -5.2180   -1.1690 c3        1 MOL     -0.066922
     24 C10        -2.1930   -5.6460   -0.4470 c3        1 MOL      0.054433
     25 C11        -3.4250   -5.9180   -1.3430 c3        1 MOL     -0.244661
     26 C12        -4.7160   -6.3960   -0.6020 c3        1 MOL      0.166434
     27 N3         -4.5050   -7.8270   -0.2210 n4        1 MOL     -0.447272
     28 H8         -0.3270   -3.2400    0.2590 hn        1 MOL      0.260166
     29 H9          0.2320   -6.0400    0.5290 h1        1 MOL      0.083940
     30 H10        -0.7550   -5.9090   -2.0000 hc        1 MOL      0.044074
     31 H11        -0.9730   -4.2120   -1.5900 hc        1 MOL      0.044074
     32 H12        -2.4170   -4.7600    0.1430 hc        1 MOL      0.009071
     33 H13        -1.9980   -6.4990    0.2060 hc        1 MOL      0.009071
     34 H14        -3.1940   -6.6380   -2.1270 hc        1 MOL      0.090920
     35 H15        -3.7050   -4.9090   -1.6470 hc        1 MOL      0.090920
     36 H16        -5.6850   -6.1270   -1.0340 hx        1 MOL      0.075952
     37 H17        -4.7210   -5.9530    0.3960 hx        1 MOL      0.075952
     38 H18        -4.4650   -8.4830   -0.9770 hn        1 MOL      0.344243
     39 H19        -3.6620   -7.9430    0.3310 hn        1 MOL      0.344243
     40 H20        -5.2160   -8.0820    0.4510 hn        1 MOL      0.344243
     41 N4          2.6860   -4.8260   -0.7480 n         1 MOL     -0.259589
     42 C13         4.0510   -5.0830   -1.2380 c3        1 MOL     -0.098719
     43 C14         5.1570   -4.5530   -0.3590 c         1 MOL      0.498710
     44 O6          6.3300   -4.9140   -0.6670 o         1 MOL     -0.537971
     45 C15         4.2240   -4.4940   -2.7130 c3        1 MOL     -0.056518
     46 C16         4.1120   -3.0040   -2.9040 c         1 MOL      0.774546
     47 O7          3.3350   -2.3790   -2.1680 o         1 MOL     -0.742843
     48 O8          4.8020   -2.4590   -3.7850 o         1 MOL     -0.742843
     49 H21         2.4840   -3.9700   -0.2600 hn        1 MOL      0.090871
     50 H22         4.1200   -6.1580   -1.3900 h1        1 MOL      0.132418
     51 H23         3.7320   -4.9720   -3.5570 hc        1 MOL      0.034749
     52 H24         5.2260   -4.8330   -2.9550 hc        1 MOL      0.034749
     53 N5          4.8670   -3.7480    0.6600 n         1 MOL     -0.341505
     54 C17         5.9350   -3.1350    1.5130 c3        1 MOL     -0.105533
     55 C18         6.6770   -1.8500    1.1090 c         1 MOL      0.527956
     56 O9          7.6660   -1.5560    1.7520 o         1 MOL     -0.561782
     57 H25         3.9640   -3.3490    0.8710 hn        1 MOL      0.332860
     58 H26         6.7220   -3.7960    1.8760 h1        1 MOL      0.097109
     59 H27         5.4830   -2.9200    2.4850 h1        1 MOL      0.097109
     60 N6          6.2450   -1.1460    0.0360 n         1 MOL     -0.210315
     61 C19         6.8730    0.0800   -0.5870 c3        1 MOL     -0.201137
     62 C20         6.6140    1.3920    0.2800 c         1 MOL      0.384342
     63 O10         7.0660    2.4480   -0.1140 o         1 MOL     -0.461877
     64 C21         6.1960    0.3820   -2.0080 c3        1 MOL     -0.105577
     65 C22         4.8610    1.0860   -1.9530 c         1 MOL      0.343345
     66 N7          4.6940    2.1240   -2.7200 n         1 MOL     -0.473493
     67 O11         3.9770    0.8160   -1.1560 o         1 MOL     -0.501039
     68 H28         5.2730   -1.2910   -0.1910 hn        1 MOL      0.198768
     69 H29         7.9480   -0.0360   -0.7030 h1        1 MOL      0.183418
     70 H30         6.0980   -0.4980   -2.6480 hc        1 MOL      0.093919
     71 H31         6.8300    1.0720   -2.5510 hc        1 MOL      0.093919
     72 H32         5.2280    2.2540   -3.5620 hn        1 MOL      0.282131
     73 H33         3.8700    2.7070   -2.6240 hn        1 MOL      0.282131
     74 N8          6.0080    1.2770    1.4550 n         1 MOL     -0.102027
     75 C23         5.7530    2.4030    2.3450 c3        1 MOL     -0.408311
     76 C24         4.6080    3.2940    1.9310 c         1 MOL      0.592436
     77 O12         4.5730    4.4540    2.3560 o         1 MOL     -0.522760
     78 H34         5.5540    0.3930    1.6250 hn        1 MOL      0.253722
     79 H35         6.6700    2.9960    2.4510 h1        1 MOL      0.161312
     80 H36         5.5270    2.0070    3.3380 h1        1 MOL      0.161312
     81 N9          3.6050    2.7680    1.2000 n         1 MOL     -0.429572
     82 C25         2.4240    3.5570    0.9430 c3        1 MOL      0.266698
     83 C26         1.2290    2.6350    0.9030 c         1 MOL      0.358102
     84 O13         1.2980    1.5920    0.3220 o         1 MOL     -0.583136
     85 C27         2.4970    4.2520   -0.4250 c3        1 MOL      0.342652
     86 C28         3.3320    5.5460   -0.4710 ca        1 MOL     -0.459424
     87 C29         4.7130    5.5320   -0.7520 ca        1 MOL      0.097383
     88 C30         2.6830    6.7180   -0.0880 ca        1 MOL      0.097383
     89 C31         5.3540    6.8180   -0.9120 ca        1 MOL     -0.237549
     90 C32         3.3270    7.9760   -0.2500 ca        1 MOL     -0.237549
     91 C33         4.6530    8.0220   -0.7570 ca        1 MOL      0.243590
     92 O14         5.3670    9.1580   -0.8860 oh        1 MOL     -0.444914
     93 H37         3.7070    1.8110    0.8610 hn        1 MOL      0.313811
     94 H38         2.2090    4.2640    1.7470 h1        1 MOL     -0.029784
     95 H39         1.4840    4.4900   -0.7270 hc        1 MOL     -0.047927
     96 H40         2.8080    3.5170   -1.1720 hc        1 MOL     -0.047927
     97 H41         5.1620    4.6000   -1.0500 ha        1 MOL      0.040818
     98 H42         1.6380    6.7160    0.1930 ha        1 MOL      0.040818
     99 H43         6.3860    6.8700   -1.2210 ha        1 MOL      0.125818
    100 H44         2.8070    8.8900   -0.0400 ha        1 MOL      0.125818
    101 H45         4.8900    9.9740   -0.7710 ho        1 MOL      0.356947
    102 N10         0.0860    3.1630    1.3970 n         1 MOL     -0.458199
    103 C34        -1.2490    2.4710    1.4900 c3        1 MOL     -0.011236
    104 C35        -2.2570    3.3060    0.6790 c         1 MOL      0.598646
    105 O15        -2.5060    4.4620    1.0400 o         1 MOL     -0.563787
    106 C36        -1.6170    2.2610    2.9640 c3        1 MOL      0.068329
    107 C37        -0.6950    1.1990    3.7290 c3        1 MOL      0.202055
    108 C38        -3.0620    1.9680    3.1450 c3        1 MOL     -0.164687
    109 C39        -0.7200    1.4180    5.2900 c3        1 MOL     -0.474894
    110 H46         0.2210    4.0540    1.8470 hn        1 MOL      0.309839
    111 H47        -1.1420    1.4990    1.0000 h1        1 MOL      0.062860
    112 H48        -1.3780    3.2360    3.3840 hc        1 MOL      0.008948
    113 H49         0.3490    1.3570    3.4640 hc        1 MOL      0.017285
    114 H50        -1.0230    0.1790    3.5300 hc        1 MOL      0.017285
    115 H51        -3.7160    2.6900    2.6510 hc        1 MOL      0.029903
    116 H52        -3.2990    0.9780    2.7650 hc        1 MOL      0.029903
    117 H53        -3.2650    1.9260    4.2210 hc        1 MOL      0.029903
    118 H54        -0.7340    2.4730    5.5690 hc        1 MOL      0.114648
    119 H55        -1.6680    0.9370    5.5390 hc        1 MOL      0.114648
    120 H56         0.1660    0.9090    5.6650 hc        1 MOL      0.114648
    121 N11        -2.8700    2.8410   -0.4220 n         1 MOL     -0.413309
    122 C40        -4.0180    3.4910   -1.0450 c3        1 MOL      0.072174
    123 C41        -5.3920    3.3400   -0.3300 c         1 MOL      0.454191
    124 O16        -5.5470    2.3830    0.4300 o         1 MOL     -0.319840
    125 C42        -4.0560    3.2190   -2.5050 c3        1 MOL     -0.199287
    126 O17        -4.6640    1.9490   -2.6750 oh        1 MOL     -0.443143
    127 H57        -2.5260    1.9970   -0.8430 hn        1 MOL      0.319114
    128 H58        -3.8280    4.5640   -1.0700 h1        1 MOL      0.056871
    129 H59        -3.0510    3.2300   -2.9350 h1        1 MOL      0.122862
    130 H60        -4.7490    3.9090   -2.9800 h1        1 MOL      0.122862
    131 H61        -4.7350    1.7090   -3.6030 ho        1 MOL      0.376184
    132 N12        -6.4070    4.1490   -0.6810 n         1 MOL     -0.525177
    133 C43        -7.8890    3.7910   -0.2500 c3        1 MOL      0.154162
    134 C44        -8.3350    2.3800   -0.7610 c         1 MOL      0.439056
    135 O18        -9.3840    1.9010   -0.2880 o         1 MOL     -0.548453
    136 C45        -8.7930    4.8490   -0.8660 c3        1 MOL     -0.371887
    137 H62        -6.3220    4.8130   -1.4290 hn        1 MOL      0.318389
    138 H63        -7.8790    3.6920    0.8370 h1        1 MOL      0.101486
    139 H64        -8.5780    5.8050   -0.3860 hc        1 MOL      0.116900
    140 H65        -8.5760    4.8290   -1.9340 hc        1 MOL      0.116900
    141 H66        -9.8570    4.6460   -0.7620 hc        1 MOL      0.116900
    142 N13        -7.6700    1.7580   -1.6740 n         1 MOL     -0.170849
    143 C46        -7.9350    0.4040   -2.0970 c3        1 MOL     -0.021199
    144 C47        -7.1610   -0.7800   -1.5030 c         1 MOL      0.410436
    145 O19        -7.6950   -1.8680   -1.3980 o         1 MOL     -0.507986
    146 C48        -7.8390    0.4110   -3.6120 c3        1 MOL     -0.129833
    147 H67        -6.8970    2.2300   -2.1190 hn        1 MOL      0.162511
    148 H68        -8.9920    0.2970   -1.8700 h1        1 MOL      0.124703
    149 H69        -8.2280   -0.5450   -3.9660 hc        1 MOL      0.038056
    150 H70        -8.4270    1.1960   -4.0760 hc        1 MOL      0.038056
    151 H71        -6.8360    0.5140   -4.0370 hc        1 MOL      0.038056
    152 N14        -5.9760   -0.5540   -0.9790 n         1 MOL     -0.166389
    153 C49        -5.3420   -1.2820    0.1170 c3        1 MOL     -0.102389
    154 C50        -6.0970   -1.1350    1.4860 c         1 MOL      0.443483
    155 O20        -6.4050   -2.1560    2.0680 o         1 MOL     -0.543416
    156 C51        -3.8940   -0.8010    0.2530 c3        1 MOL     -0.009799
    157 C52        -2.9650   -1.5340   -0.8020 c3        1 MOL      0.029611
    158 C53        -1.5730   -0.8640   -0.7270 c         1 MOL      0.761149
    159 O21        -1.5590    0.3950   -1.0510 o         1 MOL     -0.719779
    160 O22        -0.5620   -1.5640   -0.6330 o         1 MOL     -0.719779
    161 H72        -5.5510    0.3290   -1.1880 hn        1 MOL      0.079493
    162 H73        -5.3020   -2.3580   -0.0840 h1        1 MOL      0.092496
    163 H74        -3.6080   -1.0490    1.2770 hc        1 MOL      0.035348
    164 H75        -3.8280    0.2840    0.1420 hc        1 MOL      0.035348
    165 H76        -3.3200   -1.3720   -1.8170 hc        1 MOL     -0.033889
    166 H77        -2.8100   -2.5940   -0.5860 hc        1 MOL     -0.033889
    167 N15        -6.6310    0.0740    1.7570 n         1 MOL     -0.037538
    168 C54        -7.4780    0.2990    2.9110 c3        1 MOL     -0.167278
    169 H78        -7.7050   -0.6560    3.3860 h1        1 MOL      0.077030
    170 H79        -6.9600    0.9430    3.6220 h1        1 MOL      0.077030
    171 H80        -8.4060    0.7760    2.5940 h1        1 MOL      0.077030
    172 H81        -6.3780    0.8820    1.2090 hn        1 MOL      0.041272
    173 Ca1         1.6030   -0.4270   -1.5940 Ca        1 MOL      1.828842
    174 O23         2.8610   -0.4030   -4.0320 oh        1 MOL     -0.880415
    175 H82         3.2400    0.1870   -4.6820 ho        1 MOL      0.419540
    176 H83         3.4090   -1.1860   -4.0580 ho        1 MOL      0.419540
    177 O24         0.2280   -2.1340   -3.4300 oh        1 MOL     -0.880415
    178 H84         0.7160   -2.6270   -4.0930 ho        1 MOL      0.419540
    179 H85        -0.6410   -2.5330   -3.4300 ho        1 MOL      0.419540
    180 O25         0.9060    1.7750   -2.9130 oh        1 MOL     -0.880415
    181 H86        -0.0440    1.8170   -2.9540 ho        1 MOL      0.419540
    182 H87         1.1950    2.5150   -3.4450 ho        1 MOL      0.419540
@<TRIPOS>BOND
     1    1    2 1   
     2    1    4 1   
     3    1    5 1   
     4    1    6 1   
     5    2    3 2   
     6    2    7 1   
     7    7    8 1   
     8    7   15 1   
     9    8    9 1   
    10    8   11 1   
    11    8   16 1   
    12    9   10 2   
    13    9   19 1   
    14   11   12 1   
    15   11   17 1   
    16   11   18 1   
    17   12   13 1   
    18   12   14 1   
    19   19   20 1   
    20   19   28 1   
    21   20   21 1   
    22   20   23 1   
    23   20   29 1   
    24   21   22 2   
    25   21   41 1   
    26   23   24 1   
    27   23   30 1   
    28   23   31 1   
    29   24   25 1   
    30   24   32 1   
    31   24   33 1   
    32   25   26 1   
    33   25   34 1   
    34   25   35 1   
    35   26   27 1   
    36   26   36 1   
    37   26   37 1   
    38   27   38 1   
    39   27   39 1   
    40   27   40 1   
    41   41   42 1   
    42   41   49 1   
    43   42   43 1   
    44   42   45 1   
    45   42   50 1   
    46   43   44 2   
    47   43   53 1   
    48   45   46 1   
    49   45   51 1   
    50   45   52 1   
    51   46   47 1   
    52   46   48 1   
    53   53   54 1   
    54   53   57 1   
    55   54   55 1   
    56   54   58 1   
    57   54   59 1   
    58   55   56 2   
    59   55   60 1   
    60   60   61 1   
    61   60   68 1   
    62   61   62 1   
    63   61   64 1   
    64   61   69 1   
    65   62   63 2   
    66   62   74 1   
    67   64   65 1   
    68   64   70 1   
    69   64   71 1   
    70   65   66 1   
    71   65   67 2   
    72   66   72 1   
    73   66   73 1   
    74   74   75 1   
    75   74   78 1   
    76   75   76 1   
    77   75   79 1   
    78   75   80 1   
    79   76   77 2   
    80   76   81 1   
    81   81   82 1   
    82   81   93 1   
    83   82   83 1   
    84   82   85 1   
    85   82   94 1   
    86   83   84 2   
    87   83  102 1   
    88   85   86 1   
    89   85   95 1   
    90   85   96 1   
    91   86   87 ar  
    92   86   88 ar  
    93   87   89 ar  
    94   87   97 1   
    95   88   90 ar  
    96   88   98 1   
    97   89   91 ar  
    98   89   99 1   
    99   90   91 ar  
   100   90  100 1   
   101   91   92 1   
   102   92  101 1   
   103  102  103 1   
   104  102  110 1   
   105  103  104 1   
   106  103  106 1   
   107  103  111 1   
   108  104  105 2   
   109  104  121 1   
   110  106  107 1   
   111  106  108 1   
   112  106  112 1   
   113  107  109 1   
   114  107  113 1   
   115  107  114 1   
   116  108  115 1   
   117  108  116 1   
   118  108  117 1   
   119  109  118 1   
   120  109  119 1   
   121  109  120 1   
   122  121  122 1   
   123  121  127 1   
   124  122  123 1   
   125  122  125 1   
   126  122  128 1   
   127  123  124 2   
   128  123  132 1   
   129  125  126 1   
   130  125  129 1   
   131  125  130 1   
   132  126  131 1   
   133  132  133 1   
   134  132  137 1   
   135  133  134 1   
   136  133  136 1   
   137  133  138 1   
   138  134  135 2   
   139  134  142 1   
   140  136  139 1   
   141  136  140 1   
   142  136  141 1   
   143  142  143 1   
   144  142  147 1   
   145  143  144 1   
   146  143  146 1   
   147  143  148 1   
   148  144  145 2   
   149  144  152 1   
   150  146  149 1   
   151  146  150 1   
   152  146  151 1   
   153  152  153 1   
   154  152  161 1   
   155  153  154 1   
   156  153  156 1   
   157  153  162 1   
   158  154  155 2   
   159  154  167 1   
   160  156  157 1   
   161  156  163 1   
   162  156  164 1   
   163  157  158 1   
   164  157  165 1   
   165  157  166 1   
   166  158  159 1   
   167  158  160 1   
   168  167  168 1   
   169  167  172 1   
   170  168  169 1   
   171  168  170 1   
   172  168  171 1   
   173  174  175 1   
   174  174  176 1   
   175  177  178 1   
   176  177  179 1   
   177  180  181 1   
   178  180  182 1   
@<TRIPOS>SUBSTRUCTURE
     1 MOL         1 TEMP              0 ****  ****    0 ROOT
