@<TRIPOS>MOLECULE
MOL
  172   171     1     0     0
SMALL
resp


@<TRIPOS>ATOM
      1 C1         -0.3120    2.5870    5.9950 c3        1 MOL     -0.355015
      2 C2         -0.6490    2.6730    4.4580 c         1 MOL      0.764253
      3 O1          0.0460    3.2640    3.6070 o         1 MOL     -0.614002
      4 H1         -0.4590    1.5650    6.3420 hc        1 MOL      0.081058
      5 H2          0.7260    2.8800    6.1570 hc        1 MOL      0.081058
      6 H3         -0.9690    3.2570    6.5500 hc        1 MOL      0.081058
      7 N1         -1.7120    1.9730    4.1640 n         1 MOL     -0.561856
      8 C3         -2.2160    1.8280    2.8510 c3        1 MOL      0.022269
      9 C4         -2.7620    3.1700    2.3300 c         1 MOL      0.499718
     10 O2         -3.5700    3.8030    2.9900 o         1 MOL     -0.559563
     11 C5         -3.2920    0.7400    2.8410 c3        1 MOL      0.046131
     12 C6         -3.9950    0.4180    1.5190 c         1 MOL      0.493719
     13 O3         -3.3970   -0.1540    0.6110 o         1 MOL     -0.594825
     14 O4         -5.1370    0.8450    1.4450 o         1 MOL     -0.594825
     15 H4         -2.2150    1.5080    4.8970 hn        1 MOL      0.309930
     16 H5         -1.4280    1.3450    2.2680 h1        1 MOL      0.079676
     17 H6         -3.9720    1.0390    3.6350 hc        1 MOL     -0.013541
     18 H7         -2.8010   -0.1590    3.1980 hc        1 MOL     -0.013541
     19 N2         -2.2000    3.6450    1.2080 n         1 MOL     -0.198546
     20 C7         -2.3320    5.0280    0.7320 c3        1 MOL      0.287445
     21 C8         -3.2960    5.1980   -0.5100 c         1 MOL      0.267394
     22 O5         -3.9730    6.2080   -0.5780 o         1 MOL     -0.532914
     23 C9         -0.9500    5.6630    0.6240 c3        1 MOL     -0.262908
     24 H8         -1.6680    3.0000    0.6480 hn        1 MOL      0.201376
     25 H9         -2.8050    5.4690    1.6140 h1        1 MOL     -0.003023
     26 H10        -0.6010    5.6540   -0.4100 hc        1 MOL      0.061793
     27 H11        -0.9380    6.6650    1.0630 hc        1 MOL      0.061793
     28 H12        -0.2120    5.0610    1.1690 hc        1 MOL      0.061793
     29 N3         -3.2910    4.2170   -1.4330 n         1 MOL     -0.068928
     30 C10        -4.2230    4.0640   -2.6010 c3        1 MOL     -0.115744
     31 C11        -5.5830    3.4590   -2.1550 c         1 MOL      0.434546
     32 O6         -6.5010    3.4970   -2.9870 o         1 MOL     -0.533237
     33 C12        -3.5310    3.1040   -3.5990 c3        1 MOL     -0.232128
     34 C13        -3.2370    1.6970   -3.0730 c         1 MOL      0.975660
     35 O7         -3.9880    1.0390   -2.3460 o         1 MOL     -0.843379
     36 O8         -2.2940    1.0210   -3.5880 o         1 MOL     -0.843379
     37 H13        -2.7860    3.4020   -1.1180 hn        1 MOL      0.035391
     38 H14        -4.3440    5.0740   -2.9880 h1        1 MOL      0.130563
     39 H15        -2.6100    3.5330   -3.9990 hc        1 MOL      0.064192
     40 H16        -4.1970    2.9550   -4.4460 hc        1 MOL      0.064192
     41 N4         -5.8000    2.9540   -0.9440 n         1 MOL     -0.195746
     42 C14        -7.0680    2.4640   -0.4760 c3        1 MOL     -0.021319
     43 C15        -7.5150    1.1110   -1.0800 c         1 MOL      0.454462
     44 O9         -8.6730    0.9350   -1.4370 o         1 MOL     -0.590252
     45 H17        -5.0990    2.9190   -0.2190 hn        1 MOL      0.198191
     46 H18        -7.8840    3.1380   -0.7440 h1        1 MOL      0.048325
     47 H19        -7.1860    2.4570    0.6090 h1        1 MOL      0.048325
     48 N5         -6.6100    0.1580   -1.2350 n         1 MOL     -0.219539
     49 C16        -7.0010   -1.2580   -1.5390 c3        1 MOL      0.126556
     50 C17        -6.7450   -2.1460   -0.3050 c         1 MOL      0.313809
     51 O10        -7.1600   -3.3100   -0.3070 o         1 MOL     -0.531124
     52 C18        -6.2990   -1.8410   -2.8010 c3        1 MOL     -0.296162
     53 C19        -4.8780   -2.2590   -2.6670 c         1 MOL      0.704240
     54 N6         -4.3480   -3.1340   -3.5510 n         1 MOL     -0.787169
     55 O11        -4.1720   -1.8490   -1.7780 o         1 MOL     -0.553495
     56 H20        -5.6620    0.4440   -1.0220 hn        1 MOL      0.329914
     57 H21        -8.0720   -1.3230   -1.7370 h1        1 MOL      0.085352
     58 H22        -6.3750   -1.1280   -3.6250 hc        1 MOL      0.081309
     59 H23        -6.8330   -2.7560   -3.0430 hc        1 MOL      0.081309
     60 H24        -5.0430   -3.6310   -4.0960 hn        1 MOL      0.339888
     61 H25        -3.3980   -3.3740   -3.3310 hn        1 MOL      0.339888
     62 N7         -6.0400   -1.6160    0.7180 n         1 MOL     -0.124709
     63 C20        -5.8890   -2.3280    2.0710 c3        1 MOL     -0.075258
     64 C21        -4.8770   -3.4660    2.0770 c         1 MOL      0.428458
     65 O12        -5.0880   -4.4050    2.8990 o         1 MOL     -0.579425
     66 H26        -5.8170   -0.6430    0.7800 hn        1 MOL      0.063923
     67 H27        -6.8400   -2.6630    2.4800 h1        1 MOL      0.087097
     68 H28        -5.5450   -1.6660    2.8550 h1        1 MOL      0.087097
     69 N8         -3.8530   -3.2910    1.3370 n         1 MOL     -0.251801
     70 C22        -2.7280   -4.2120    1.2020 c3        1 MOL      0.083369
     71 C23        -1.4450   -3.3730    0.9580 c         1 MOL      0.497683
     72 O13        -1.3880   -2.6180   -0.0170 o         1 MOL     -0.568723
     73 C24        -2.9800   -5.2800    0.1290 c3        1 MOL      0.492868
     74 C25        -1.8510   -6.3190    0.0550 c3        1 MOL     -0.397926
     75 O14        -4.2670   -5.9430    0.2940 oh        1 MOL     -0.582566
     76 H29        -3.7520   -2.4060    0.8420 hn        1 MOL      0.150621
     77 H30        -2.5790   -4.6340    2.2020 h1        1 MOL      0.021853
     78 H31        -2.9850   -4.7500   -0.8280 h1        1 MOL     -0.085486
     79 H32        -4.7350   -5.6930   -0.5050 ho        1 MOL      0.359609
     80 H33        -1.7020   -6.6020    1.0990 hc        1 MOL      0.087086
     81 H34        -2.1880   -7.2180   -0.4590 hc        1 MOL      0.087086
     82 H35        -0.9330   -5.9450   -0.3920 hc        1 MOL      0.087086
     83 N9         -0.4140   -3.5270    1.7240 n         1 MOL     -0.442264
     84 C26         0.7570   -2.6270    1.7590 c3        1 MOL      0.017935
     85 C27         1.7320   -3.0220    0.6080 c         1 MOL      0.650965
     86 O15         2.2170   -4.1700    0.6820 o         1 MOL     -0.617448
     87 C28         1.5530   -2.7740    3.0740 c3        1 MOL      0.051180
     88 C29         0.7900   -2.1840    4.2280 c3        1 MOL      0.162596
     89 C30         3.0230   -2.3120    3.0150 c3        1 MOL     -0.063511
     90 C31         1.1570   -2.7740    5.5700 c3        1 MOL     -0.154459
     91 H36        -0.3320   -4.3740    2.2730 hn        1 MOL      0.253812
     92 H37         0.4580   -1.5880    1.6860 h1        1 MOL      0.081435
     93 H38         1.5700   -3.8650    3.1000 hc        1 MOL      0.011032
     94 H39        -0.2720   -2.4110    4.1920 hc        1 MOL     -0.028465
     95 H40         0.8840   -1.0930    4.2340 hc        1 MOL     -0.028465
     96 H41         3.6380   -2.9620    2.4020 hc        1 MOL      0.008142
     97 H42         3.0340   -1.2710    2.7070 hc        1 MOL      0.008142
     98 H43         3.4170   -2.4140    4.0340 hc        1 MOL      0.008142
     99 H44         0.9060   -3.8340    5.6520 hc        1 MOL      0.019637
    100 H45         2.2260   -2.7730    5.7910 hc        1 MOL      0.019637
    101 H46         0.6320   -2.1840    6.3140 hc        1 MOL      0.019637
    102 N10         2.1300   -2.0560   -0.1550 n         1 MOL     -0.348936
    103 C32         3.0860   -2.1120   -1.2260 c3        1 MOL      0.069882
    104 C33         4.4070   -1.6140   -0.6380 c         1 MOL      0.586126
    105 O16         4.4330   -1.0020    0.4380 o         1 MOL     -0.468491
    106 C34         2.6280   -1.2330   -2.4260 c3        1 MOL     -0.220587
    107 C35         1.2340   -1.6640   -2.8040 c         1 MOL      0.775880
    108 O17         1.0580   -2.7700   -3.3270 o         1 MOL     -0.683291
    109 O18         0.2590   -0.8090   -2.7340 o         1 MOL     -0.683291
    110 H47         1.6890   -1.1800    0.0870 hn        1 MOL      0.108722
    111 H48         3.3310   -3.1100   -1.5750 h1        1 MOL      0.068599
    112 H49         3.2650   -1.4450   -3.2920 hc        1 MOL      0.050178
    113 H50         2.5610   -0.1810   -2.1860 hc        1 MOL      0.050178
    114 N11         5.4990   -1.6250   -1.4160 n         1 MOL     -0.763959
    115 C36         6.8520   -1.1950   -0.9970 c3        1 MOL      0.599991
    116 C37         6.9030    0.3420   -0.6770 c         1 MOL      0.139083
    117 O19         7.3790    0.6310    0.4580 o         1 MOL     -0.409794
    118 C38         7.8780   -1.7310   -1.9860 c3        1 MOL     -0.129798
    119 C39         9.3240   -1.4210   -1.5520 ca        1 MOL      0.045665
    120 C40         9.8290   -1.7290   -0.2970 ca        1 MOL     -0.133354
    121 C41        10.1780   -0.7820   -2.4170 ca        1 MOL     -0.133354
    122 C42        11.1890   -1.5370    0.1000 ca        1 MOL     -0.096226
    123 C43        11.5430   -0.6350   -2.1170 ca        1 MOL     -0.096226
    124 C44        12.0890   -1.0130   -0.8510 ca        1 MOL     -0.156964
    125 H51         5.3310   -1.9050   -2.3780 hn        1 MOL      0.312995
    126 H52         7.0570   -1.8080   -0.1150 h1        1 MOL      0.018899
    127 H53         7.8090   -1.3340   -3.0000 hc        1 MOL      0.038773
    128 H54         7.7530   -2.8110   -2.0960 hc        1 MOL      0.038773
    129 H55         9.1560   -2.2420    0.3650 ha        1 MOL      0.093307
    130 H56         9.7850   -0.5410   -3.3930 ha        1 MOL      0.093307
    131 H57        11.5860   -1.9090    1.0270 ha        1 MOL      0.105233
    132 H58        12.1170   -0.0650   -2.8360 ha        1 MOL      0.105233
    133 H59        13.1170   -0.8410   -0.5900 ha        1 MOL      0.123377
    134 N12         6.5110    1.2750   -1.6330 n         1 MOL     -0.140810
    135 C45         6.2430    2.7130   -1.4150 c3        1 MOL      0.222821
    136 C46         5.4260    2.9510   -0.1400 c         1 MOL      0.168920
    137 O20         5.9390    3.7930    0.6710 o         1 MOL     -0.480606
    138 C47         5.4610    3.3180   -2.5790 c3        1 MOL     -0.019853
    139 C48         5.9130    2.3960   -3.6750 c3        1 MOL     -0.032406
    140 C49         6.2640    0.9710   -3.0710 c3        1 MOL     -0.003503
    141 H60         7.1860    3.2580   -1.4300 h1        1 MOL      0.035474
    142 H61         4.3880    3.2460   -2.4160 hc        1 MOL      0.026160
    143 H62         5.9070    4.2750   -2.8410 hc        1 MOL      0.026160
    144 H63         5.1280    2.2730   -4.4160 hc        1 MOL      0.022885
    145 H64         6.8210    2.7380   -4.1640 hc        1 MOL      0.022885
    146 H65         5.4180    0.2840   -3.1100 h1        1 MOL      0.021303
    147 H66         7.1290    0.5250   -3.5670 h1        1 MOL      0.021303
    148 N13         4.2670    2.3330    0.0870 n         1 MOL     -0.236253
    149 C50         3.4930    2.4840    1.2890 c3        1 MOL     -0.024647
    150 C51         4.2610    2.0910    2.5710 c         1 MOL      0.368601
    151 O21         4.0020    2.6850    3.6360 o         1 MOL     -0.564327
    152 C52         2.2720    1.5430    1.2300 c3        1 MOL      0.080504
    153 C53         1.2520    2.2500    0.2350 c3        1 MOL      0.035108
    154 C54         0.0120    1.4520   -0.1120 c         1 MOL      0.519878
    155 O22        -0.0230    0.2090    0.1500 o         1 MOL     -0.702681
    156 O23        -0.9600    2.0230   -0.6820 o         1 MOL     -0.702681
    157 H67         3.9450    1.6700   -0.6050 hn        1 MOL      0.325558
    158 H68         3.1190    3.4990    1.4370 h1        1 MOL      0.121434
    159 H69         1.8310    1.6660    2.2240 hc        1 MOL      0.017363
    160 H70         2.4790    0.5070    0.9930 hc        1 MOL      0.017363
    161 H71         1.8400    2.4420   -0.6580 hc        1 MOL     -0.016890
    162 H72         0.9900    3.2300    0.6190 hc        1 MOL     -0.016890
    163 N14         5.2180    1.2290    2.4510 n         1 MOL      0.117177
    164 C55         6.0220    0.7390    3.5640 c3        1 MOL     -0.208544
    165 H73         7.0250    0.5000    3.2090 h1        1 MOL      0.074357
    166 H74         6.0840    1.5070    4.3350 h1        1 MOL      0.074357
    167 H75         5.5610   -0.1560    3.9790 h1        1 MOL      0.074357
    168 H76         5.3760    0.8020    1.5470 hn        1 MOL     -0.015854
    169 Ca1        -1.9290   -0.4660   -1.4320 Ca        1 MOL      1.746162
    170 O24        -1.5340   -3.1540   -2.9970 oh        1 MOL     -0.820464
    171 H77        -0.6180   -3.0570   -3.2400 ho        1 MOL      0.390156
    172 H78        -1.6850   -4.0960   -2.9660 ho        1 MOL      0.390156
@<TRIPOS>BOND
     1    1    2 1   
     2    1    4 1   
     3    1    5 1   
     4    1    6 1   
     5    2    3 2   
     6    2    7 1   
     7    7    8 1   
     8    7   15 1   
     9    8    9 1   
    10    8   11 1   
    11    8   16 1   
    12    9   10 2   
    13    9   19 1   
    14   11   12 1   
    15   11   17 1   
    16   11   18 1   
    17   12   13 1   
    18   12   14 1   
    19   19   20 1   
    20   19   24 1   
    21   20   21 1   
    22   20   23 1   
    23   20   25 1   
    24   21   22 2   
    25   21   29 1   
    26   23   26 1   
    27   23   27 1   
    28   23   28 1   
    29   29   30 1   
    30   29   37 1   
    31   30   31 1   
    32   30   33 1   
    33   30   38 1   
    34   31   32 2   
    35   31   41 1   
    36   33   34 1   
    37   33   39 1   
    38   33   40 1   
    39   34   35 1   
    40   34   36 1   
    41   41   42 1   
    42   41   45 1   
    43   42   43 1   
    44   42   46 1   
    45   42   47 1   
    46   43   44 2   
    47   43   48 1   
    48   48   49 1   
    49   48   56 1   
    50   49   50 1   
    51   49   52 1   
    52   49   57 1   
    53   50   51 2   
    54   50   62 1   
    55   52   53 1   
    56   52   58 1   
    57   52   59 1   
    58   53   54 1   
    59   53   55 2   
    60   54   60 1   
    61   54   61 1   
    62   62   63 1   
    63   62   66 1   
    64   63   64 1   
    65   63   67 1   
    66   63   68 1   
    67   64   65 2   
    68   64   69 1   
    69   69   70 1   
    70   69   76 1   
    71   70   71 1   
    72   70   73 1   
    73   70   77 1   
    74   71   72 2   
    75   71   83 1   
    76   73   74 1   
    77   73   75 1   
    78   73   78 1   
    79   74   80 1   
    80   74   81 1   
    81   74   82 1   
    82   75   79 1   
    83   83   84 1   
    84   83   91 1   
    85   84   85 1   
    86   84   87 1   
    87   84   92 1   
    88   85   86 2   
    89   85  102 1   
    90   87   88 1   
    91   87   89 1   
    92   87   93 1   
    93   88   90 1   
    94   88   94 1   
    95   88   95 1   
    96   89   96 1   
    97   89   97 1   
    98   89   98 1   
    99   90   99 1   
   100   90  100 1   
   101   90  101 1   
   102  102  103 1   
   103  102  110 1   
   104  103  104 1   
   105  103  106 1   
   106  103  111 1   
   107  104  105 2   
   108  104  114 1   
   109  106  107 1   
   110  106  112 1   
   111  106  113 1   
   112  107  108 1   
   113  107  109 1   
   114  114  115 1   
   115  114  125 1   
   116  115  116 1   
   117  115  118 1   
   118  115  126 1   
   119  116  117 2   
   120  116  134 1   
   121  118  119 1   
   122  118  127 1   
   123  118  128 1   
   124  119  120 ar  
   125  119  121 ar  
   126  120  122 ar  
   127  120  129 1   
   128  121  123 ar  
   129  121  130 1   
   130  122  124 ar  
   131  122  131 1   
   132  123  124 ar  
   133  123  132 1   
   134  124  133 1   
   135  134  135 1   
   136  134  140 1   
   137  135  136 1   
   138  135  138 1   
   139  135  141 1   
   140  136  137 2   
   141  136  148 1   
   142  138  139 1   
   143  138  142 1   
   144  138  143 1   
   145  139  140 1   
   146  139  144 1   
   147  139  145 1   
   148  140  146 1   
   149  140  147 1   
   150  148  149 1   
   151  148  157 1   
   152  149  150 1   
   153  149  152 1   
   154  149  158 1   
   155  150  151 2   
   156  150  163 1   
   157  152  153 1   
   158  152  159 1   
   159  152  160 1   
   160  153  154 1   
   161  153  161 1   
   162  153  162 1   
   163  154  155 1   
   164  154  156 1   
   165  163  164 1   
   166  163  168 1   
   167  164  165 1   
   168  164  166 1   
   169  164  167 1   
   170  170  171 1   
   171  170  172 1   
@<TRIPOS>SUBSTRUCTURE
     1 MOL         1 TEMP              0 ****  ****    0 ROOT
