@<TRIPOS>MOLECULE
MOL
  179   176     1     0     0
SMALL
resp


@<TRIPOS>ATOM
      1 C1         -1.1140   -4.0860    5.6950 c3        1 MOL     -0.396632
      2 C2         -0.7690   -3.5490    4.3050 c         1 MOL      0.734691
      3 O1         -1.5850   -3.5330    3.4150 o         1 MOL     -0.614320
      4 H1         -0.3350   -4.7750    6.0210 hc        1 MOL      0.106916
      5 H2         -1.1820   -3.2570    6.3990 hc        1 MOL      0.106916
      6 H3         -2.0690   -4.6100    5.6560 hc        1 MOL      0.106916
      7 N1          0.4840   -3.1470    4.0240 n         1 MOL     -0.527765
      8 C3          0.9830   -2.6670    2.7750 c3        1 MOL      0.007910
      9 C4          1.2520   -3.8490    1.8350 c         1 MOL      0.554533
     10 O2          1.9390   -4.7350    2.2420 o         1 MOL     -0.540947
     11 C5          2.0810   -1.5860    2.9460 c3        1 MOL     -0.041622
     12 C6          2.7350   -1.0540    1.7420 c         1 MOL      0.805012
     13 O3          3.8620   -0.4550    1.8770 o         1 MOL     -0.854917
     14 O4          2.1480   -1.2580    0.6130 o         1 MOL     -0.854917
     15 H4          1.1940   -3.0690    4.7440 hn        1 MOL      0.287637
     16 H5          0.2440   -2.0650    2.2540 h1        1 MOL      0.028580
     17 H6          2.8280   -1.9000    3.6760 hc        1 MOL      0.032929
     18 H7          1.5900   -0.7430    3.4400 hc        1 MOL      0.032929
     19 N2          0.7020   -3.9130    0.6000 n         1 MOL     -0.252413
     20 C7          0.6460   -5.2200   -0.1220 c3        1 MOL      0.040268
     21 C8          1.8980   -5.4620   -0.9640 c         1 MOL      0.418952
     22 O5          2.4480   -6.5620   -0.9030 o         1 MOL     -0.543173
     23 C9         -0.6300   -5.4930   -0.8880 c3        1 MOL     -0.133756
     24 C10        -1.8510   -5.8210    0.0200 c3        1 MOL      0.096960
     25 C11        -3.0280   -5.9030   -0.9880 c3        1 MOL     -0.084537
     26 C12        -4.2450   -6.2360   -0.1880 c3        1 MOL      0.032312
     27 N3         -5.3890   -6.1610   -1.1370 n4        1 MOL     -0.302641
     28 H8          0.1110   -3.1970    0.2210 hn        1 MOL      0.194689
     29 H9          0.7640   -6.1270    0.4720 h1        1 MOL      0.060694
     30 H10        -0.4240   -6.3390   -1.5500 hc        1 MOL      0.049070
     31 H11        -0.7370   -4.6760   -1.5920 hc        1 MOL      0.049070
     32 H12        -2.0000   -4.9920    0.7120 hc        1 MOL      0.028390
     33 H13        -1.7230   -6.7560    0.5680 hc        1 MOL      0.028390
     34 H14        -2.7770   -6.6990   -1.6840 hc        1 MOL      0.033742
     35 H15        -3.1640   -4.8880   -1.3670 hc        1 MOL      0.033742
     36 H16        -4.2330   -5.4150    0.5330 hx        1 MOL      0.084212
     37 H17        -4.1000   -7.1690    0.3490 hx        1 MOL      0.084212
     38 H18        -5.4270   -5.2570   -1.5670 hn        1 MOL      0.311511
     39 H19        -5.4040   -6.8300   -1.8930 hn        1 MOL      0.311511
     40 H20        -6.2800   -6.2900   -0.6890 hn        1 MOL      0.311511
     41 N4          2.4380   -4.4550   -1.6660 n         1 MOL     -0.326377
     42 C13         3.8330   -4.5470   -2.2570 c3        1 MOL     -0.033452
     43 C14         4.9090   -4.0690   -1.3420 c         1 MOL      0.398678
     44 O6          6.1010   -3.9290   -1.7080 o         1 MOL     -0.538609
     45 C15         3.9260   -3.7010   -3.5600 c3        1 MOL     -0.099659
     46 C16         3.2850   -2.3290   -3.6070 c         1 MOL      0.680212
     47 O7          3.3550   -1.6840   -4.6990 o         1 MOL     -0.703481
     48 O8          2.5700   -1.9870   -2.6510 o         1 MOL     -0.703481
     49 H21         1.9780   -3.5530   -1.7700 hn        1 MOL      0.224666
     50 H22         4.0710   -5.5730   -2.5430 h1        1 MOL      0.124853
     51 H23         3.4990   -4.3350   -4.3410 hc        1 MOL      0.049106
     52 H24         4.9820   -3.5710   -3.8240 hc        1 MOL      0.049106
     53 N5          4.5910   -3.7550   -0.1030 n         1 MOL     -0.168070
     54 C17         5.4690   -3.2870    0.9670 c3        1 MOL     -0.088201
     55 C18         6.2110   -1.9900    0.6140 c         1 MOL      0.496557
     56 O9          7.3210   -1.7960    1.0860 o         1 MOL     -0.565681
     57 H25         3.6990   -4.0800    0.2350 hn        1 MOL      0.211049
     58 H26         6.2430   -4.0260    1.2000 h1        1 MOL      0.077308
     59 H27         4.8650   -3.2210    1.8830 h1        1 MOL      0.077308
     60 N6          5.5980   -1.1580   -0.2660 n         1 MOL      0.002841
     61 C19         6.3000   -0.0720   -0.8510 c3        1 MOL     -0.334429
     62 C20         6.3930    1.1510    0.0660 c         1 MOL      0.499780
     63 O10         6.8970    2.1160   -0.4750 o         1 MOL     -0.498945
     64 C21         5.7230    0.1950   -2.2580 c3        1 MOL     -0.046582
     65 C22         4.4210    0.9410   -2.2160 c         1 MOL      0.533100
     66 N7          4.1820    1.8930   -3.1060 n         1 MOL     -0.673154
     67 O11         3.5650    0.7340   -1.3510 o         1 MOL     -0.615510
     68 H28         4.6170   -1.2750   -0.4840 hn        1 MOL      0.107114
     69 H29         7.3830   -0.1890   -0.9070 h1        1 MOL      0.174086
     70 H30         5.6110   -0.6900   -2.8860 hc        1 MOL      0.074875
     71 H31         6.3610    0.8420   -2.8480 hc        1 MOL      0.074875
     72 H32         4.7920    1.9680   -3.9130 hn        1 MOL      0.343160
     73 H33         3.3580    2.4690   -3.0140 hn        1 MOL      0.343160
     74 N8          6.0350    1.1070    1.3320 n         1 MOL     -0.281072
     75 C23         6.0150    2.2180    2.2390 c3        1 MOL     -0.287678
     76 C24         4.6770    2.9590    2.1870 c         1 MOL      0.715048
     77 O12         4.4800    3.8930    3.0480 o         1 MOL     -0.621185
     78 H34         5.3820    0.3820    1.6040 hn        1 MOL      0.337573
     79 H35         6.8320    2.8680    1.9130 h1        1 MOL      0.136372
     80 H36         6.2000    1.9170    3.2680 h1        1 MOL      0.136372
     81 N9          3.6270    2.4820    1.4990 n         1 MOL     -0.596928
     82 C25         2.3690    3.3140    1.2520 c3        1 MOL      0.052154
     83 C26         1.1370    2.5010    1.1210 c         1 MOL      0.605143
     84 O13         1.2550    1.4050    0.5010 o         1 MOL     -0.550386
     85 C27         2.5870    4.1210   -0.0120 c3        1 MOL      0.000729
     86 C28         3.7990    5.0500   -0.0230 ca        1 MOL     -0.277763
     87 C29         4.9540    4.7070   -0.7910 ca        1 MOL      0.086139
     88 C30         3.7470    6.2690    0.6830 ca        1 MOL      0.086139
     89 C31         5.9760    5.6240   -0.9740 ca        1 MOL     -0.431304
     90 C32         4.8130    7.2410    0.5980 ca        1 MOL     -0.431304
     91 C33         5.8990    6.8340   -0.1770 ca        1 MOL      0.481394
     92 O14         6.9650    7.6750   -0.1910 oh        1 MOL     -0.523817
     93 H37         3.7430    1.5840    1.0430 hn        1 MOL      0.506813
     94 H38         2.2650    3.9860    2.1020 h1        1 MOL      0.088146
     95 H39         1.7170    4.7230   -0.2500 hc        1 MOL      0.042326
     96 H40         2.6070    3.5080   -0.9090 hc        1 MOL      0.042326
     97 H41         4.9230    3.7380   -1.2680 ha        1 MOL      0.067804
     98 H42         2.8320    6.5410    1.1800 ha        1 MOL      0.067804
     99 H43         6.9010    5.5170   -1.5210 ha        1 MOL      0.189726
    100 H44         4.8040    8.2010    1.0850 ha        1 MOL      0.189726
    101 H45         6.9120    8.4000    0.4300 ho        1 MOL      0.366897
    102 N10         0.0170    2.9710    1.7020 n         1 MOL     -0.634879
    103 C34        -1.3420    2.3620    1.6690 c3        1 MOL      0.036132
    104 C35        -2.2300    3.2720    0.7800 c         1 MOL      0.605639
    105 O15        -2.4180    4.4660    1.1170 o         1 MOL     -0.561011
    106 C36        -1.8680    2.1150    3.1410 c3        1 MOL     -0.002282
    107 C37        -1.0830    0.8780    3.6630 c3        1 MOL     -0.037768
    108 C38        -3.3830    1.8660    2.9600 c3        1 MOL     -0.119541
    109 C39        -1.4840    0.5350    5.0350 c3        1 MOL     -0.080025
    110 H46         0.2200    3.7410    2.3220 hn        1 MOL      0.331395
    111 H47        -1.2470    1.4040    1.1500 h1        1 MOL      0.027927
    112 H48        -1.7370    2.9850    3.7770 hc        1 MOL      0.071257
    113 H49         0.0020    0.9230    3.6000 hc        1 MOL      0.069583
    114 H50        -1.3750    0.0280    3.0570 hc        1 MOL      0.069583
    115 H51        -3.8000    1.6040    3.9270 hc        1 MOL      0.028458
    116 H52        -3.9080    2.7660    2.6410 hc        1 MOL      0.028458
    117 H53        -3.6100    0.9850    2.3590 hc        1 MOL      0.028458
    118 H54        -2.5140    0.2240    5.1380 hc        1 MOL      0.015525
    119 H55        -0.8850   -0.2470    5.5080 hc        1 MOL      0.015525
    120 H56        -1.3300    1.4130    5.6700 hc        1 MOL      0.015525
    121 N11        -2.7610    2.7440   -0.2970 n         1 MOL     -0.381601
    122 C40        -3.7150    3.4500   -1.1010 c3        1 MOL      0.055963
    123 C41        -5.1730    3.4150   -0.6120 c         1 MOL      0.456950
    124 O16        -5.5130    2.6080    0.2720 o         1 MOL     -0.433531
    125 C42        -3.6400    3.1170   -2.5950 c3        1 MOL     -0.068211
    126 O17        -4.1100    1.7970   -2.8100 oh        1 MOL     -0.437306
    127 H57        -2.6140    1.7560   -0.4780 hn        1 MOL      0.324841
    128 H58        -3.4420    4.5050   -1.0350 h1        1 MOL      0.054690
    129 H59        -2.6320    3.2900   -2.9630 h1        1 MOL      0.066407
    130 H60        -4.3680    3.7720   -3.0880 h1        1 MOL      0.066407
    131 H61        -4.1650    1.6810   -3.7600 ho        1 MOL      0.369499
    132 N12        -6.0370    4.2570   -1.1360 n         1 MOL     -0.469734
    133 C43        -7.4490    4.1430   -0.7390 c3        1 MOL      0.233350
    134 C44        -8.0150    2.7010   -0.9400 c         1 MOL      0.447120
    135 O18        -8.8230    2.2990   -0.0510 o         1 MOL     -0.535492
    136 C45        -8.3010    5.1350   -1.5400 c3        1 MOL     -0.303868
    137 H62        -5.7310    4.8260   -1.9080 hn        1 MOL      0.316894
    138 H63        -7.6120    4.3640    0.3170 h1        1 MOL      0.078570
    139 H64        -9.3490    4.9080   -1.3360 hc        1 MOL      0.085704
    140 H65        -7.9550    6.1250   -1.2560 hc        1 MOL      0.085704
    141 H66        -8.0820    5.0160   -2.6020 hc        1 MOL      0.085704
    142 N13        -7.6380    1.8900   -1.9090 n         1 MOL     -0.431067
    143 C46        -8.1180    0.4920   -2.0220 c3        1 MOL      0.245527
    144 C47        -7.4330   -0.4470   -1.0450 c         1 MOL      0.272555
    145 O19        -8.0740   -1.4470   -0.6310 o         1 MOL     -0.521370
    146 C48        -7.9070    0.0240   -3.5120 c3        1 MOL     -0.359623
    147 H67        -6.9180    2.2540   -2.5110 hn        1 MOL      0.251639
    148 H68        -9.1890    0.4510   -1.8240 h1        1 MOL      0.097240
    149 H69        -6.9510    0.3780   -3.8940 hc        1 MOL      0.096986
    150 H70        -7.8590   -1.0550   -3.5250 hc        1 MOL      0.096986
    151 H71        -8.7580    0.3710   -4.1190 hc        1 MOL      0.096986
    152 N14        -6.1570   -0.1860   -0.6950 n         1 MOL      0.002379
    153 C49        -5.4230   -1.1530    0.2240 c3        1 MOL     -0.084401
    154 C50        -5.8330   -0.8620    1.7080 c         1 MOL      0.348308
    155 O20        -5.8530   -1.8080    2.5460 o         1 MOL     -0.541750
    156 C51        -3.9370   -0.9230    0.0190 c3        1 MOL      0.088981
    157 C52        -3.2030   -1.5410   -1.1610 c3        1 MOL     -0.438748
    158 C53        -1.7030   -1.1320   -1.1820 c         1 MOL      0.962981
    159 O21        -0.7860   -1.8070   -1.6880 o         1 MOL     -0.831384
    160 O22        -1.3300   -0.0230   -0.7620 o         1 MOL     -0.831384
    161 H72        -5.6470    0.6310   -0.9700 hn        1 MOL     -0.015047
    162 H73        -5.6970   -2.1660   -0.0810 h1        1 MOL      0.084782
    163 H74        -3.3820   -1.1510    0.9300 hc        1 MOL      0.063527
    164 H75        -3.7940    0.1560   -0.0600 hc        1 MOL      0.063527
    165 H76        -3.7060   -1.3390   -2.1060 hc        1 MOL      0.076056
    166 H77        -3.2980   -2.6020   -0.9650 hc        1 MOL      0.076056
    167 N15        -6.2990    0.3460    1.9460 n         1 MOL      0.084799
    168 C54        -6.9770    0.7930    3.1670 c3        1 MOL     -0.288146
    169 H78        -7.0930    1.8760    3.1420 h1        1 MOL      0.108585
    170 H79        -7.9580    0.3250    3.2310 h1        1 MOL      0.108585
    171 H80        -6.3820    0.5130    4.0360 h1        1 MOL      0.108585
    172 H81        -6.3580    1.0230    1.2000 hn        1 MOL      0.091972
    173 Ca1         1.1600   -0.2220   -1.5930 Ca        1 MOL      1.852367
    174 O23         0.9540    0.0510   -4.2520 oh        1 MOL     -0.918676
    175 H82         0.4480    0.2790   -5.0300 ho        1 MOL      0.431221
    176 H83         1.6150   -0.5650   -4.5710 ho        1 MOL      0.431221
    177 O24         0.6980    2.1810   -2.5880 oh        1 MOL     -0.918676
    178 H84         0.8260    3.1270   -2.4700 ho        1 MOL      0.431221
    179 H85         0.2200    2.1120   -3.4100 ho        1 MOL      0.431221
@<TRIPOS>BOND
     1    1    2 1   
     2    1    4 1   
     3    1    5 1   
     4    1    6 1   
     5    2    3 2   
     6    2    7 1   
     7    7    8 1   
     8    7   15 1   
     9    8    9 1   
    10    8   11 1   
    11    8   16 1   
    12    9   10 2   
    13    9   19 1   
    14   11   12 1   
    15   11   17 1   
    16   11   18 1   
    17   12   13 1   
    18   12   14 1   
    19   19   20 1   
    20   19   28 1   
    21   20   21 1   
    22   20   23 1   
    23   20   29 1   
    24   21   22 2   
    25   21   41 1   
    26   23   24 1   
    27   23   30 1   
    28   23   31 1   
    29   24   25 1   
    30   24   32 1   
    31   24   33 1   
    32   25   26 1   
    33   25   34 1   
    34   25   35 1   
    35   26   27 1   
    36   26   36 1   
    37   26   37 1   
    38   27   38 1   
    39   27   39 1   
    40   27   40 1   
    41   41   42 1   
    42   41   49 1   
    43   42   43 1   
    44   42   45 1   
    45   42   50 1   
    46   43   44 2   
    47   43   53 1   
    48   45   46 1   
    49   45   51 1   
    50   45   52 1   
    51   46   47 1   
    52   46   48 1   
    53   53   54 1   
    54   53   57 1   
    55   54   55 1   
    56   54   58 1   
    57   54   59 1   
    58   55   56 2   
    59   55   60 1   
    60   60   61 1   
    61   60   68 1   
    62   61   62 1   
    63   61   64 1   
    64   61   69 1   
    65   62   63 2   
    66   62   74 1   
    67   64   65 1   
    68   64   70 1   
    69   64   71 1   
    70   65   66 1   
    71   65   67 2   
    72   66   72 1   
    73   66   73 1   
    74   74   75 1   
    75   74   78 1   
    76   75   76 1   
    77   75   79 1   
    78   75   80 1   
    79   76   77 2   
    80   76   81 1   
    81   81   82 1   
    82   81   93 1   
    83   82   83 1   
    84   82   85 1   
    85   82   94 1   
    86   83   84 2   
    87   83  102 1   
    88   85   86 1   
    89   85   95 1   
    90   85   96 1   
    91   86   87 ar  
    92   86   88 ar  
    93   87   89 ar  
    94   87   97 1   
    95   88   90 ar  
    96   88   98 1   
    97   89   91 ar  
    98   89   99 1   
    99   90   91 ar  
   100   90  100 1   
   101   91   92 1   
   102   92  101 1   
   103  102  103 1   
   104  102  110 1   
   105  103  104 1   
   106  103  106 1   
   107  103  111 1   
   108  104  105 2   
   109  104  121 1   
   110  106  107 1   
   111  106  108 1   
   112  106  112 1   
   113  107  109 1   
   114  107  113 1   
   115  107  114 1   
   116  108  115 1   
   117  108  116 1   
   118  108  117 1   
   119  109  118 1   
   120  109  119 1   
   121  109  120 1   
   122  121  122 1   
   123  121  127 1   
   124  122  123 1   
   125  122  125 1   
   126  122  128 1   
   127  123  124 2   
   128  123  132 1   
   129  125  126 1   
   130  125  129 1   
   131  125  130 1   
   132  126  131 1   
   133  132  133 1   
   134  132  137 1   
   135  133  134 1   
   136  133  136 1   
   137  133  138 1   
   138  134  135 2   
   139  134  142 1   
   140  136  139 1   
   141  136  140 1   
   142  136  141 1   
   143  142  143 1   
   144  142  147 1   
   145  143  144 1   
   146  143  146 1   
   147  143  148 1   
   148  144  145 2   
   149  144  152 1   
   150  146  149 1   
   151  146  150 1   
   152  146  151 1   
   153  152  153 1   
   154  152  161 1   
   155  153  154 1   
   156  153  156 1   
   157  153  162 1   
   158  154  155 2   
   159  154  167 1   
   160  156  157 1   
   161  156  163 1   
   162  156  164 1   
   163  157  158 1   
   164  157  165 1   
   165  157  166 1   
   166  158  159 1   
   167  158  160 1   
   168  167  168 1   
   169  167  172 1   
   170  168  169 1   
   171  168  170 1   
   172  168  171 1   
   173  174  175 1   
   174  174  176 1   
   175  177  178 1   
   176  177  179 1   
@<TRIPOS>SUBSTRUCTURE
     1 MOL         1 TEMP              0 ****  ****    0 ROOT
