@<TRIPOS>MOLECULE
MOL
  189   185     1     0     0
SMALL
resp


@<TRIPOS>ATOM
      1 C1          0.4670    3.8380   -4.4450 c3        1 MOL     -0.237023
      2 C2          0.7760    3.2170   -3.0200 c         1 MOL      0.634294
      3 O1          0.0850    3.4110   -1.9980 o         1 MOL     -0.569889
      4 H1          0.2280    3.0370   -5.1450 hc        1 MOL      0.058689
      5 H2         -0.3810    4.5190   -4.3700 hc        1 MOL      0.058689
      6 H3          1.3410    4.3830   -4.8020 hc        1 MOL      0.058689
      7 N1          1.9630    2.6160   -3.0150 n         1 MOL     -0.508657
      8 C3          2.5790    2.0050   -1.8250 c3        1 MOL      0.292936
      9 C4          3.3970    3.0370   -1.0680 c         1 MOL      0.222099
     10 O2          4.6130    3.0970   -1.4200 o         1 MOL     -0.448320
     11 C5          3.3400    0.7560   -2.3180 c3        1 MOL     -0.371454
     12 C6          4.1220   -0.0360   -1.1770 c         1 MOL      0.694714
     13 O3          3.7020    0.0130   -0.0020 o         1 MOL     -0.639264
     14 O4          5.1200   -0.6640   -1.5490 o         1 MOL     -0.639264
     15 H4          2.4240    2.4220   -3.8950 hn        1 MOL      0.292393
     16 H5          1.7070    1.7460   -1.2190 h1        1 MOL     -0.055958
     17 H6          4.1550    1.0650   -2.9650 hc        1 MOL      0.090386
     18 H7          2.6710    0.0300   -2.7740 hc        1 MOL      0.090386
     19 N2          2.8200    3.9090   -0.2640 n         1 MOL     -0.134881
     20 C7          3.5760    4.8980    0.4800 c3        1 MOL     -0.109148
     21 C8          4.5630    4.3890    1.5140 c         1 MOL      0.611977
     22 O5          5.5190    5.0530    1.7370 o         1 MOL     -0.580436
     23 C9          2.6360    6.0430    0.9900 c3        1 MOL      0.143430
     24 C10         2.0410    6.8470   -0.1180 c3        1 MOL     -0.016793
     25 C11         2.7580    7.1530   -1.3860 c3        1 MOL     -0.060227
     26 C12         4.1660    7.6820   -1.3200 c3        1 MOL      0.197171
     27 N3          4.6140    8.1330   -2.6290 n4        1 MOL     -0.429564
     28 H8          1.8140    4.0030   -0.3170 hn        1 MOL      0.272585
     29 H9          4.2430    5.2960   -0.2810 h1        1 MOL      0.025442
     30 H10         3.2810    6.7280    1.5530 hc        1 MOL     -0.015768
     31 H11         1.9180    5.7020    1.7300 hc        1 MOL     -0.015768
     32 H12         1.7940    7.8540    0.2020 hc        1 MOL      0.022657
     33 H13         1.1050    6.3920   -0.4490 hc        1 MOL      0.022657
     34 H14         2.1540    7.9200   -1.8830 hc        1 MOL      0.010727
     35 H15         2.6480    6.3020   -2.0540 hc        1 MOL      0.010727
     36 H16         4.8200    6.9140   -0.8960 hx        1 MOL      0.041636
     37 H17         4.2420    8.5030   -0.6030 hx        1 MOL      0.041636
     38 H18         3.8370    8.6680   -3.0040 hn        1 MOL      0.341164
     39 H19         5.3940    8.7640   -2.5320 hn        1 MOL      0.341164
     40 H20         4.8510    7.3840   -3.2610 hn        1 MOL      0.341164
     41 N4          4.3770    3.1700    2.0960 n         1 MOL     -0.367677
     42 C13         5.3140    2.5600    3.0300 c3        1 MOL      0.028903
     43 C14         6.3250    1.5660    2.4430 c         1 MOL      0.435742
     44 O6          7.0140    0.9210    3.2330 o         1 MOL     -0.518990
     45 C15         4.5230    2.0510    4.3080 c3        1 MOL     -0.366494
     46 C16         3.2900    1.1650    3.8700 c         1 MOL      0.832137
     47 O7          2.3560    1.0870    4.7210 o         1 MOL     -0.700377
     48 O8          3.2520    0.3530    2.9200 o         1 MOL     -0.700377
     49 H21         3.5940    2.5940    1.8040 hn        1 MOL      0.179859
     50 H22         5.9740    3.3940    3.2570 h1        1 MOL      0.110768
     51 H23         4.2750    2.8240    5.0240 hc        1 MOL      0.112624
     52 H24         5.2840    1.4460    4.8060 hc        1 MOL      0.112624
     53 N5          6.4150    1.4510    1.1050 n         1 MOL     -0.256510
     54 C17         7.3950    0.6040    0.4070 c3        1 MOL     -0.248992
     55 C18         7.3580   -0.9260    0.6640 c         1 MOL      0.516748
     56 O9          8.4200   -1.5750    0.3470 o         1 MOL     -0.616073
     57 H25         5.7160    1.9170    0.5480 hn        1 MOL      0.200077
     58 H26         8.3750    0.9100    0.7790 h1        1 MOL      0.132438
     59 H27         7.3690    0.9000   -0.6460 h1        1 MOL      0.132438
     60 N6          6.3040   -1.5270    1.0770 n         1 MOL     -0.217490
     61 C19         6.3670   -2.9420    1.6050 c3        1 MOL      0.013700
     62 C20         6.3210   -3.9770    0.4390 c         1 MOL      0.543555
     63 O10         6.4190   -5.1380    0.6420 o         1 MOL     -0.544775
     64 C21         5.3290   -3.1350    2.7600 c3        1 MOL     -0.283536
     65 C22         3.8800   -2.9250    2.3390 c         1 MOL      0.821116
     66 O11         3.0130   -2.6200    3.1910 o         1 MOL     -0.731080
     67 O12         3.5320   -3.0190    1.1550 o         1 MOL     -0.731080
     68 H28         5.4780   -0.9630    1.2420 hn        1 MOL      0.260738
     69 H29         7.3870   -3.1270    1.9390 h1        1 MOL      0.083428
     70 H30         5.4920   -2.3980    3.5540 hc        1 MOL      0.085978
     71 H31         5.4630   -4.1640    3.0980 hc        1 MOL      0.085978
     72 N7          6.0880   -3.5940   -0.8260 n         1 MOL     -0.318922
     73 C23         5.8280   -4.5260   -1.9400 c3        1 MOL     -0.053282
     74 C24         4.3520   -4.9610   -2.0720 c         1 MOL      0.652105
     75 O13         4.0940   -5.8740   -2.8720 o         1 MOL     -0.626254
     76 H32         5.7670   -2.6390   -0.8710 hn        1 MOL      0.223534
     77 H33         6.4910   -5.3860   -1.8690 h1        1 MOL      0.064428
     78 H34         6.1010   -4.0130   -2.8610 h1        1 MOL      0.064428
     79 N8          3.4220   -4.2650   -1.4740 n         1 MOL     -0.424027
     80 C25         2.0220   -4.5270   -1.5500 c3        1 MOL     -0.173653
     81 C26         1.1480   -3.2950   -1.4260 c         1 MOL      0.899072
     82 O14         1.4640   -2.3600   -0.7480 o         1 MOL     -0.677948
     83 C27         1.7100   -5.5580   -0.4960 c3        1 MOL      0.378074
     84 C28         1.8000   -7.0080   -0.9610 c3        1 MOL     -0.451289
     85 O15         2.6060   -5.4740    0.6010 oh        1 MOL     -0.579208
     86 H35         3.6440   -3.5670   -0.7780 hn        1 MOL      0.298747
     87 H36         1.8670   -4.9830   -2.5220 h1        1 MOL      0.105113
     88 H37         0.7030   -5.3110   -0.1380 h1        1 MOL     -0.040191
     89 H38         2.6600   -4.5700    0.9150 ho        1 MOL      0.373311
     90 H39         2.8610   -7.1880   -1.1120 hc        1 MOL      0.121961
     91 H40         1.4420   -7.6580   -0.1630 hc        1 MOL      0.121961
     92 H41         1.1710   -7.1820   -1.8280 hc        1 MOL      0.121961
     93 N9          0.0650   -3.3000   -2.2320 n         1 MOL     -0.822020
     94 C29        -1.0380   -2.3300   -2.2090 c3        1 MOL      0.272152
     95 C30        -2.3180   -2.8810   -1.5780 c         1 MOL      0.436712
     96 O16        -2.8220   -3.9560   -2.0320 o         1 MOL     -0.567786
     97 C31        -1.3020   -1.7730   -3.6330 c3        1 MOL      0.137511
     98 C32        -0.1310   -0.9410   -4.1460 c3        1 MOL      0.087911
     99 C33        -2.4340   -0.7770   -3.6960 c3        1 MOL     -0.159338
    100 C34        -0.1810   -0.6150   -5.6480 c3        1 MOL     -0.279940
    101 H42        -0.1260   -4.1940   -2.6500 hn        1 MOL      0.335121
    102 H43        -0.7630   -1.4700   -1.5980 h1        1 MOL      0.050015
    103 H44        -1.5150   -2.5670   -4.3610 hc        1 MOL      0.004358
    104 H45         0.7840   -1.4860   -3.9400 hc        1 MOL     -0.002090
    105 H46         0.0370   -0.0900   -3.4910 hc        1 MOL     -0.002090
    106 H47        -3.3970   -1.1590   -3.3330 hc        1 MOL      0.001763
    107 H48        -2.1690    0.1720   -3.2260 hc        1 MOL      0.001763
    108 H49        -2.6300   -0.6230   -4.7580 hc        1 MOL      0.001763
    109 H50         0.8060   -0.3630   -6.0380 hc        1 MOL      0.069542
    110 H51        -0.4780   -1.5270   -6.1830 hc        1 MOL      0.069542
    111 H52        -0.8880    0.1790   -5.8550 hc        1 MOL      0.069542
    112 N10        -3.0520   -2.1920   -0.6670 n         1 MOL     -0.087016
    113 C35        -4.3510   -2.5230   -0.1310 c3        1 MOL     -0.031268
    114 C36        -5.4790   -1.8370   -0.8650 c         1 MOL      0.356134
    115 O17        -5.3280   -0.8740   -1.6370 o         1 MOL     -0.274928
    116 C37        -4.5320   -1.9980    1.3300 c3        1 MOL      0.127515
    117 C38        -3.4020   -2.5350    2.2220 c3        1 MOL     -0.617270
    118 O18        -4.4030   -0.6440    1.3600 oh        1 MOL     -0.084579
    119 H53        -2.7120   -1.2680   -0.4350 hn        1 MOL      0.022378
    120 H54        -4.3990   -3.6070   -0.0530 h1        1 MOL      0.101521
    121 H55        -5.4650   -2.4120    1.7180 h1        1 MOL      0.023190
    122 H56        -4.4590   -0.4320    2.2940 ho        1 MOL      0.301051
    123 H57        -3.3750   -2.0360    3.1860 hc        1 MOL      0.170770
    124 H58        -3.4550   -3.6270    2.2890 hc        1 MOL      0.170770
    125 H59        -2.4060   -2.2910    1.8510 hc        1 MOL      0.170770
    126 N11        -6.6780   -2.3020   -0.5800 n         1 MOL     -0.372916
    127 C39        -7.8740   -1.5120   -0.9360 c3        1 MOL     -0.060468
    128 C40        -7.7820   -0.0700   -0.5710 c         1 MOL      0.252683
    129 O19        -8.3490    0.7000   -1.3620 o         1 MOL     -0.494504
    130 C41        -9.1090   -2.1570   -0.2270 c3        1 MOL      0.261395
    131 C42        -9.3820   -3.5270   -0.8070 c3        1 MOL     -0.401884
    132 O20        -8.9150   -2.2800    1.1600 oh        1 MOL     -0.634663
    133 H60        -6.7560   -3.0000    0.1490 hn        1 MOL      0.300583
    134 H61        -8.0280   -1.5580   -2.0130 h1        1 MOL      0.149165
    135 H62        -9.9980   -1.5320   -0.3150 h1        1 MOL      0.063611
    136 H63        -9.7380   -2.7040    1.4320 ho        1 MOL      0.415214
    137 H64        -9.5000   -3.4550   -1.8820 hc        1 MOL      0.117547
    138 H65        -8.5360   -4.1730   -0.5790 hc        1 MOL      0.117547
    139 H66       -10.3860   -3.8330   -0.4830 hc        1 MOL      0.117547
    140 N12        -7.1520    0.3860    0.5510 n         1 MOL      0.075964
    141 C43        -7.0510    1.8210    0.9240 c3        1 MOL     -0.038993
    142 C44        -5.9160    2.5480    0.2500 c         1 MOL      0.371497
    143 O21        -6.0760    3.7470   -0.0870 o         1 MOL     -0.507443
    144 C45        -7.1350    1.9860    2.4590 c3        1 MOL     -0.025937
    145 C46        -8.5350    2.0400    3.0650 c3        1 MOL      0.046446
    146 C47        -9.0650    0.6280    3.4200 c3        1 MOL     -0.011059
    147 C48       -10.4510    0.6600    4.0530 c3        1 MOL     -0.028922
    148 N13       -10.4550    1.0550    5.4900 n4        1 MOL     -0.397590
    149 H67        -6.8280   -0.3280    1.1880 hn        1 MOL      0.052670
    150 H68        -7.9310    2.3570    0.5740 h1        1 MOL      0.095829
    151 H69        -6.6760    2.9560    2.6810 hc        1 MOL      0.006853
    152 H70        -6.4910    1.2630    2.9700 hc        1 MOL      0.006853
    153 H71        -9.2160    2.5760    2.4040 hc        1 MOL      0.017386
    154 H72        -8.5010    2.5720    4.0220 hc        1 MOL      0.017386
    155 H73        -8.5180    0.2760    4.2910 hc        1 MOL      0.014626
    156 H74        -9.0690   -0.0470    2.5560 hc        1 MOL      0.014626
    157 H75       -10.9330   -0.2800    3.7850 hx        1 MOL      0.093666
    158 H76       -11.0310    1.3850    3.4790 hx        1 MOL      0.093666
    159 H77       -10.3600    2.0530    5.6620 hn        1 MOL      0.316622
    160 H78       -11.3340    0.7170    5.8450 hn        1 MOL      0.316622
    161 H79        -9.7740    0.4780    5.9550 hn        1 MOL      0.316622
    162 N14        -4.8370    1.8320   -0.0850 n         1 MOL      0.027230
    163 C49        -3.6790    2.4030   -0.7590 c3        1 MOL     -0.106644
    164 C50        -4.1180    2.6580   -2.2100 c         1 MOL      0.390750
    165 O22        -3.7860    3.7700   -2.7110 o         1 MOL     -0.555767
    166 C51        -2.4080    1.5890   -0.6510 c3        1 MOL      0.246496
    167 C52        -1.7120    1.7300    0.6530 c3        1 MOL     -0.212816
    168 C53        -0.4700    0.7940    0.7480 c         1 MOL      0.857665
    169 O23        -0.6280   -0.4240    0.5730 o         1 MOL     -0.791949
    170 O24         0.5900    1.2620    1.2660 o         1 MOL     -0.791949
    171 H80        -4.7870    0.8260    0.0270 hn        1 MOL     -0.309195
    172 H81        -3.4280    3.3770   -0.3350 h1        1 MOL      0.103308
    173 H82        -1.7700    1.8930   -1.4820 hc        1 MOL      0.011904
    174 H83        -2.6850    0.5550   -0.8790 hc        1 MOL      0.011904
    175 H84        -2.3790    1.4220    1.4650 hc        1 MOL      0.011386
    176 H85        -1.4060    2.7750    0.6890 hc        1 MOL      0.011386
    177 N15        -4.8650    1.7630   -2.8740 n         1 MOL      0.019183
    178 C54        -5.4740    2.1330   -4.1630 c3        1 MOL     -0.346856
    179 H86        -5.0530    1.5120   -4.9540 h1        1 MOL      0.119939
    180 H87        -6.5510    1.9770   -4.1140 h1        1 MOL      0.119939
    181 H88        -5.2670    3.1810   -4.3760 h1        1 MOL      0.119939
    182 H89        -5.0950    0.8890   -2.4300 hn        1 MOL      0.131090
    183 Ca1         1.7600   -1.0200    1.3800 Ca        1 MOL      1.726405
    184 O25         0.5350   -0.6190    3.7920 oh        1 MOL     -0.853785
    185 H90        -0.1710   -0.0590    4.0920 ho        1 MOL      0.403045
    186 H91         1.3240   -0.2700    4.2080 ho        1 MOL      0.403045
    187 O26         0.5270   -3.2660    2.3460 oh        1 MOL     -0.853785
    188 H92        -0.0100   -4.0330    2.5140 ho        1 MOL      0.403045
    189 H93         0.9660   -3.0910    3.1820 ho        1 MOL      0.403045
@<TRIPOS>BOND
     1    1    2 1   
     2    1    4 1   
     3    1    5 1   
     4    1    6 1   
     5    2    3 2   
     6    2    7 1   
     7    7    8 1   
     8    7   15 1   
     9    8    9 1   
    10    8   11 1   
    11    8   16 1   
    12    9   10 2   
    13    9   19 1   
    14   11   12 1   
    15   11   17 1   
    16   11   18 1   
    17   12   13 1   
    18   12   14 1   
    19   19   20 1   
    20   19   28 1   
    21   20   21 1   
    22   20   23 1   
    23   20   29 1   
    24   21   22 2   
    25   21   41 1   
    26   23   24 1   
    27   23   30 1   
    28   23   31 1   
    29   24   25 1   
    30   24   32 1   
    31   24   33 1   
    32   25   26 1   
    33   25   34 1   
    34   25   35 1   
    35   26   27 1   
    36   26   36 1   
    37   26   37 1   
    38   27   38 1   
    39   27   39 1   
    40   27   40 1   
    41   41   42 1   
    42   41   49 1   
    43   42   43 1   
    44   42   45 1   
    45   42   50 1   
    46   43   44 2   
    47   43   53 1   
    48   45   46 1   
    49   45   51 1   
    50   45   52 1   
    51   46   47 1   
    52   46   48 1   
    53   53   54 1   
    54   53   57 1   
    55   54   55 1   
    56   54   58 1   
    57   54   59 1   
    58   55   56 2   
    59   55   60 1   
    60   60   61 1   
    61   60   68 1   
    62   61   62 1   
    63   61   64 1   
    64   61   69 1   
    65   62   63 2   
    66   62   72 1   
    67   64   65 1   
    68   64   70 1   
    69   64   71 1   
    70   65   66 1   
    71   65   67 1   
    72   72   73 1   
    73   72   76 1   
    74   73   74 1   
    75   73   77 1   
    76   73   78 1   
    77   74   75 2   
    78   74   79 1   
    79   79   80 1   
    80   79   86 1   
    81   80   81 1   
    82   80   83 1   
    83   80   87 1   
    84   81   82 2   
    85   81   93 1   
    86   83   84 1   
    87   83   85 1   
    88   83   88 1   
    89   84   90 1   
    90   84   91 1   
    91   84   92 1   
    92   85   89 1   
    93   93   94 1   
    94   93  101 1   
    95   94   95 1   
    96   94   97 1   
    97   94  102 1   
    98   95   96 2   
    99   95  112 1   
   100   97   98 1   
   101   97   99 1   
   102   97  103 1   
   103   98  100 1   
   104   98  104 1   
   105   98  105 1   
   106   99  106 1   
   107   99  107 1   
   108   99  108 1   
   109  100  109 1   
   110  100  110 1   
   111  100  111 1   
   112  112  113 1   
   113  112  119 1   
   114  113  114 1   
   115  113  116 1   
   116  113  120 1   
   117  114  115 2   
   118  114  126 1   
   119  116  117 1   
   120  116  118 1   
   121  116  121 1   
   122  117  123 1   
   123  117  124 1   
   124  117  125 1   
   125  118  122 1   
   126  126  127 1   
   127  126  133 1   
   128  127  128 1   
   129  127  130 1   
   130  127  134 1   
   131  128  129 2   
   132  128  140 1   
   133  130  131 1   
   134  130  132 1   
   135  130  135 1   
   136  131  137 1   
   137  131  138 1   
   138  131  139 1   
   139  132  136 1   
   140  140  141 1   
   141  140  149 1   
   142  141  142 1   
   143  141  144 1   
   144  141  150 1   
   145  142  143 2   
   146  142  162 1   
   147  144  145 1   
   148  144  151 1   
   149  144  152 1   
   150  145  146 1   
   151  145  153 1   
   152  145  154 1   
   153  146  147 1   
   154  146  155 1   
   155  146  156 1   
   156  147  148 1   
   157  147  157 1   
   158  147  158 1   
   159  148  159 1   
   160  148  160 1   
   161  148  161 1   
   162  162  163 1   
   163  162  171 1   
   164  163  164 1   
   165  163  166 1   
   166  163  172 1   
   167  164  165 2   
   168  164  177 1   
   169  166  167 1   
   170  166  173 1   
   171  166  174 1   
   172  167  168 1   
   173  167  175 1   
   174  167  176 1   
   175  168  169 1   
   176  168  170 1   
   177  177  178 1   
   178  177  182 1   
   179  178  179 1   
   180  178  180 1   
   181  178  181 1   
   182  184  185 1   
   183  184  186 1   
   184  187  188 1   
   185  187  189 1   
@<TRIPOS>SUBSTRUCTURE
     1 MOL         1 TEMP              0 ****  ****    0 ROOT
