@<TRIPOS>MOLECULE
MOL
  175   173     1     0     0
SMALL
resp


@<TRIPOS>ATOM
      1 C1         -0.6170   -4.2100    5.3510 c3        1 MOL     -0.462787
      2 C2         -0.0240   -4.1320    3.9440 c         1 MOL      0.715829
      3 O1         -0.6430   -4.4170    2.9110 o         1 MOL     -0.555427
      4 H1         -1.5440   -3.6400    5.3860 hc        1 MOL      0.115610
      5 H2         -0.8220   -5.2510    5.6020 hc        1 MOL      0.115610
      6 H3          0.0920   -3.7950    6.0680 hc        1 MOL      0.115610
      7 N1          1.2480   -3.6880    3.8610 n         1 MOL     -0.574246
      8 C3          2.0060   -3.3940    2.6340 c3        1 MOL      0.068383
      9 C4          2.2830   -4.6330    1.7110 c         1 MOL      0.604616
     10 O2          2.6100   -5.6690    2.2620 o         1 MOL     -0.595542
     11 C5          3.4140   -2.9160    2.9410 c3        1 MOL     -0.137747
     12 C6          4.1440   -2.2980    1.6920 c         1 MOL      0.674217
     13 O3          5.3670   -2.0250    1.8270 o         1 MOL     -0.693211
     14 O4          3.6280   -2.2240    0.5690 o         1 MOL     -0.693211
     15 H4          1.7180   -3.5700    4.7400 hn        1 MOL      0.308730
     16 H5          1.4860   -2.6190    2.0720 h1        1 MOL      0.095051
     17 H6          4.0470   -3.6670    3.4120 hc        1 MOL      0.023874
     18 H7          3.3840   -2.1370    3.7010 hc        1 MOL      0.023874
     19 N2          2.0740   -4.4740    0.4030 n         1 MOL     -0.510239
     20 C7          2.1910   -5.4950   -0.5930 c3        1 MOL      0.403021
     21 C8          3.3830   -5.3110   -1.4820 c         1 MOL      0.442216
     22 O5          3.7070   -6.1560   -2.3310 o         1 MOL     -0.570876
     23 C9          0.8520   -5.5190   -1.2990 c3        1 MOL     -0.239449
     24 H8          1.7050   -3.5740    0.1260 hn        1 MOL      0.292577
     25 H9          2.3470   -6.4710   -0.1320 h1        1 MOL     -0.026230
     26 H10         0.5700   -4.5270   -1.6590 hc        1 MOL      0.048612
     27 H11         1.0170   -6.2830   -2.0570 hc        1 MOL      0.048612
     28 H12         0.0470   -5.7590   -0.5900 hc        1 MOL      0.048612
     29 N3          4.0770   -4.1600   -1.4450 n         1 MOL     -0.504553
     30 C10         4.9200   -3.5500   -2.5760 c3        1 MOL      0.116064
     31 C11         6.1600   -2.7360   -2.1490 c         1 MOL      0.433701
     32 O6          7.0570   -2.6820   -3.0080 o         1 MOL     -0.579391
     33 C12         3.8990   -2.8270   -3.5000 c3        1 MOL     -0.259097
     34 C13         3.1300   -1.6450   -2.8630 c         1 MOL      0.747319
     35 O7          1.9220   -1.3850   -3.2630 o         1 MOL     -0.711904
     36 O8          3.7140   -0.9920   -2.0050 o         1 MOL     -0.711904
     37 H13         3.8480   -3.4600   -0.7550 hn        1 MOL      0.297070
     38 H14         5.3290   -4.4480   -3.0490 h1        1 MOL      0.091060
     39 H15         3.1460   -3.5130   -3.8900 hc        1 MOL      0.063102
     40 H16         4.4010   -2.3550   -4.3420 hc        1 MOL      0.063102
     41 N4          6.2860   -2.2210   -0.9350 n         1 MOL     -0.205184
     42 C14         7.4270   -1.4480   -0.3970 c3        1 MOL     -0.306925
     43 C15         7.3660    0.0930   -0.6620 c         1 MOL      0.529987
     44 O9          8.3300    0.8280   -0.3580 o         1 MOL     -0.606362
     45 H17         5.4470   -2.3130   -0.3760 hn        1 MOL      0.217532
     46 H18         8.3010   -1.7460   -0.9670 h1        1 MOL      0.151955
     47 H19         7.6860   -1.5820    0.6580 h1        1 MOL      0.151955
     48 N5          6.2710    0.5230   -1.2750 n         1 MOL     -0.355860
     49 C16         6.2310    1.8040   -2.0800 c3        1 MOL     -0.004262
     50 C17         6.1750    3.1950   -1.3820 c         1 MOL      0.422446
     51 O10         5.7720    4.2070   -1.9930 o         1 MOL     -0.487363
     52 C18         5.0830    1.6780   -3.0790 c3        1 MOL     -0.146313
     53 C19         3.7030    1.9680   -2.5050 c         1 MOL      0.551198
     54 N6          2.7480    1.9960   -3.3680 n         1 MOL     -0.701314
     55 O11         3.4760    2.0540   -1.3380 o         1 MOL     -0.451795
     56 H20         5.5250   -0.1210   -1.4860 hn        1 MOL      0.357948
     57 H21         7.1510    1.8860   -2.6630 h1        1 MOL      0.112450
     58 H22         4.9840    0.6710   -3.4810 hc        1 MOL      0.042671
     59 H23         5.2770    2.3470   -3.9300 hc        1 MOL      0.042671
     60 H24         2.9830    1.5970   -4.2600 hn        1 MOL      0.346348
     61 H25         1.7610    2.0030   -3.1330 hn        1 MOL      0.346348
     62 N7          6.4410    3.3140   -0.0250 n         1 MOL     -0.329043
     63 C20         6.4370    4.6090    0.7360 c3        1 MOL     -0.185733
     64 C21         5.1500    5.1070    1.3220 c         1 MOL      0.536713
     65 O12         5.1650    6.0540    2.1260 o         1 MOL     -0.566509
     66 H26         6.6080    2.4050    0.3820 hn        1 MOL      0.264388
     67 H27         6.7520    5.4710    0.1460 h1        1 MOL      0.118738
     68 H28         7.1540    4.5310    1.5520 h1        1 MOL      0.118738
     69 N8          4.0730    4.3150    1.0840 n         1 MOL     -0.207148
     70 C22         2.7100    4.7240    1.3660 c3        1 MOL     -0.342447
     71 C23         1.6650    3.5800    1.5240 c         1 MOL      0.747095
     72 O13         1.9440    2.5060    0.9590 o         1 MOL     -0.559082
     73 C24         2.1220    5.5300    0.1540 c3        1 MOL      0.338665
     74 C25         2.8130    6.8330   -0.1770 c3        1 MOL     -0.336621
     75 O14         2.0950    4.9000   -1.0610 oh        1 MOL     -0.545883
     76 H29         4.1400    3.4520    0.5620 hn        1 MOL      0.191819
     77 H30         2.6980    5.3740    2.2330 h1        1 MOL      0.137238
     78 H31         1.0590    5.6940    0.3020 h1        1 MOL      0.020761
     79 H32         1.9490    3.9590   -0.9500 ho        1 MOL      0.371207
     80 H33         2.2910    7.4420   -0.9170 hc        1 MOL      0.088447
     81 H34         2.7950    7.5510    0.6340 hc        1 MOL      0.088447
     82 H35         3.8660    6.8580   -0.4510 hc        1 MOL      0.088447
     83 N9          0.5580    3.6820    2.2910 n         1 MOL     -0.642523
     84 C26        -0.5300    2.7120    2.2530 c3        1 MOL     -0.135991
     85 C27        -1.3430    3.0840    1.0030 c         1 MOL      0.504213
     86 O15        -1.5870    4.2840    0.7270 o         1 MOL     -0.580866
     87 C28        -1.3680    2.7270    3.4740 c3        1 MOL      0.160742
     88 C29        -0.5650    2.7860    4.8510 c3        1 MOL      0.179305
     89 C30        -2.4550    1.6090    3.6700 c3        1 MOL     -0.294353
     90 C31        -1.4430    2.9920    6.1070 c3        1 MOL     -0.306858
     91 H36         0.2450    4.5870    2.6270 hn        1 MOL      0.323829
     92 H37        -0.1540    1.7030    2.1010 h1        1 MOL      0.144267
     93 H38        -1.9450    3.6400    3.4830 hc        1 MOL      0.011704
     94 H39         0.2330    3.5240    4.8610 hc        1 MOL     -0.027923
     95 H40        -0.0650    1.8270    5.0010 hc        1 MOL     -0.027923
     96 H41        -3.1010    1.4540    2.8130 hc        1 MOL      0.059984
     97 H42        -1.9880    0.6550    3.9580 hc        1 MOL      0.059984
     98 H43        -3.1490    1.8710    4.4680 hc        1 MOL      0.059984
     99 H44        -2.1490    3.7440    5.7710 hc        1 MOL      0.067891
    100 H45        -1.9240    2.0680    6.4270 hc        1 MOL      0.067891
    101 H46        -0.8290    3.3280    6.9510 hc        1 MOL      0.067891
    102 N10        -1.8340    2.0890    0.2860 n         1 MOL     -0.184739
    103 C32        -2.7500    2.1840   -0.8350 c3        1 MOL      0.311068
    104 C33        -4.1630    1.7830   -0.4820 c         1 MOL      0.257159
    105 O16        -4.4450    0.9660    0.3980 o         1 MOL     -0.242834
    106 C34        -2.2100    1.1630   -1.8600 c3        1 MOL     -0.396898
    107 C35        -0.7710    1.3020   -2.3610 c         1 MOL      0.730484
    108 O17         0.1600    1.0270   -1.5910 o         1 MOL     -0.667528
    109 O18        -0.5360    1.7630   -3.4910 o         1 MOL     -0.667528
    110 H47        -1.4700    1.1600    0.4710 hn        1 MOL      0.023175
    111 H48        -2.8210    3.1810   -1.2500 h1        1 MOL      0.025745
    112 H49        -2.8870    1.2240   -2.7030 hc        1 MOL      0.084903
    113 H50        -2.3170    0.1100   -1.5640 hc        1 MOL      0.084903
    114 N11        -5.0810    2.1310   -1.4300 n         1 MOL     -0.617013
    115 C36        -6.4670    1.7030   -1.2750 c3        1 MOL      0.403751
    116 C37        -6.7570    0.1700   -1.1730 c         1 MOL      0.255031
    117 O19        -7.3350   -0.1960   -0.1500 o         1 MOL     -0.472269
    118 C38        -7.4620    2.3470   -2.2170 c3        1 MOL     -0.290020
    119 C39        -8.8960    1.9220   -1.9050 ca        1 MOL      0.201901
    120 C40        -9.7070    1.1750   -2.8730 ca        1 MOL     -0.228125
    121 C41        -9.6110    2.3210   -0.7550 ca        1 MOL     -0.228125
    122 C42       -11.0590    0.9150   -2.6460 ca        1 MOL     -0.022445
    123 C43       -10.9830    2.1240   -0.5430 ca        1 MOL     -0.022445
    124 C44       -11.7500    1.4080   -1.4940 ca        1 MOL     -0.240953
    125 H51        -4.8320    2.7620   -2.1760 hn        1 MOL      0.359383
    126 H52        -6.8250    2.0330   -0.3000 h1        1 MOL      0.047149
    127 H53        -7.0450    2.2040   -3.2130 hc        1 MOL      0.069409
    128 H54        -7.4670    3.4250   -2.0610 hc        1 MOL      0.069409
    129 H55        -9.2790    0.6350   -3.7010 ha        1 MOL      0.115448
    130 H56        -9.0090    2.9300   -0.1090 ha        1 MOL      0.115448
    131 H57       -11.5630    0.2310   -3.3100 ha        1 MOL      0.094513
    132 H58       -11.4490    2.5660    0.3230 ha        1 MOL      0.094513
    133 H59       -12.7680    1.1460   -1.2310 ha        1 MOL      0.140248
    134 N12        -6.2330   -0.7070   -2.0530 n         1 MOL     -0.037104
    135 C45        -6.2400   -2.1890   -1.8580 c3        1 MOL      0.127699
    136 C46        -5.6350   -2.7380   -0.5740 c         1 MOL      0.280721
    137 O20        -5.9330   -3.8640   -0.2620 o         1 MOL     -0.516113
    138 C47        -5.6110   -2.7820   -3.0830 c3        1 MOL     -0.304420
    139 C48        -4.6430   -1.6780   -3.5460 c3        1 MOL      0.081250
    140 C49        -5.5260   -0.4990   -3.3160 c3        1 MOL     -0.094165
    141 H60        -7.2930   -2.4550   -1.8370 h1        1 MOL      0.050425
    142 H61        -5.0530   -3.6930   -2.8690 hc        1 MOL      0.096612
    143 H62        -6.2880   -2.9110   -3.9310 hc        1 MOL      0.096612
    144 H63        -3.7860   -1.7020   -2.8740 hc        1 MOL      0.040071
    145 H64        -4.2610   -1.7670   -4.5720 hc        1 MOL      0.040071
    146 H65        -4.7580    0.2770   -3.2780 h1        1 MOL      0.031121
    147 H66        -6.2550   -0.4810   -4.1370 h1        1 MOL      0.031121
    148 N13        -4.7770   -2.0660    0.1190 n         1 MOL      0.023755
    149 C50        -4.2240   -2.4530    1.4040 c3        1 MOL     -0.187612
    150 C51        -5.1740   -1.9680    2.5550 c         1 MOL      0.491916
    151 O21        -5.3200   -2.5750    3.5840 o         1 MOL     -0.547914
    152 C52        -2.7800   -1.9250    1.6500 c3        1 MOL     -0.047903
    153 C53        -1.8150   -2.4220    0.5730 c3        1 MOL      0.000724
    154 C54        -0.4820   -1.6230    0.5550 c         1 MOL      0.552410
    155 O22         0.4930   -2.1420   -0.0610 o         1 MOL     -0.657303
    156 O23        -0.4000   -0.4770    1.0490 o         1 MOL     -0.657303
    157 H67        -4.5440   -1.1130   -0.1370 hn        1 MOL      0.147844
    158 H68        -4.1800   -3.5380    1.5010 h1        1 MOL      0.115704
    159 H69        -2.3760   -2.3360    2.5830 hc        1 MOL      0.050520
    160 H70        -2.8550   -0.8360    1.6220 hc        1 MOL      0.050520
    161 H71        -2.2120   -2.2610   -0.4340 hc        1 MOL      0.041906
    162 H72        -1.5110   -3.4630    0.6970 hc        1 MOL      0.041906
    163 N14        -5.7920   -0.7520    2.3610 n         1 MOL     -0.080640
    164 C55        -6.8990   -0.2400    3.1970 c3        1 MOL     -0.262740
    165 H73        -7.4720    0.4940    2.6310 h1        1 MOL      0.097073
    166 H74        -7.5500   -1.0650    3.4840 h1        1 MOL      0.097073
    167 H75        -6.4910    0.2310    4.0920 h1        1 MOL      0.097073
    168 H76        -5.5530   -0.3110    1.4810 hn        1 MOL      0.008630
    169 Ca1         2.0210    0.0090   -0.1320 Ca        1 MOL      1.653049
    170 O24         1.8530   -0.1040    2.5120 oh        1 MOL     -0.730749
    171 H77         2.1520    0.0840    3.4000 ho        1 MOL      0.359479
    172 H78         0.9460   -0.3990    2.6280 ho        1 MOL      0.359479
    173 O25         4.4290    0.6140    0.9960 oh        1 MOL     -0.730749
    174 H79         4.8970   -0.2220    0.9210 ho        1 MOL      0.359479
    175 H80         4.9550    1.1320    1.6070 ho        1 MOL      0.359479
@<TRIPOS>BOND
     1    1    2 1   
     2    1    4 1   
     3    1    5 1   
     4    1    6 1   
     5    2    3 2   
     6    2    7 1   
     7    7    8 1   
     8    7   15 1   
     9    8    9 1   
    10    8   11 1   
    11    8   16 1   
    12    9   10 2   
    13    9   19 1   
    14   11   12 1   
    15   11   17 1   
    16   11   18 1   
    17   12   13 1   
    18   12   14 1   
    19   19   20 1   
    20   19   24 1   
    21   20   21 1   
    22   20   23 1   
    23   20   25 1   
    24   21   22 2   
    25   21   29 1   
    26   23   26 1   
    27   23   27 1   
    28   23   28 1   
    29   29   30 1   
    30   29   37 1   
    31   30   31 1   
    32   30   33 1   
    33   30   38 1   
    34   31   32 2   
    35   31   41 1   
    36   33   34 1   
    37   33   39 1   
    38   33   40 1   
    39   34   35 1   
    40   34   36 1   
    41   41   42 1   
    42   41   45 1   
    43   42   43 1   
    44   42   46 1   
    45   42   47 1   
    46   43   44 2   
    47   43   48 1   
    48   48   49 1   
    49   48   56 1   
    50   49   50 1   
    51   49   52 1   
    52   49   57 1   
    53   50   51 2   
    54   50   62 1   
    55   52   53 1   
    56   52   58 1   
    57   52   59 1   
    58   53   54 1   
    59   53   55 2   
    60   54   60 1   
    61   54   61 1   
    62   62   63 1   
    63   62   66 1   
    64   63   64 1   
    65   63   67 1   
    66   63   68 1   
    67   64   65 2   
    68   64   69 1   
    69   69   70 1   
    70   69   76 1   
    71   70   71 1   
    72   70   73 1   
    73   70   77 1   
    74   71   72 2   
    75   71   83 1   
    76   73   74 1   
    77   73   75 1   
    78   73   78 1   
    79   74   80 1   
    80   74   81 1   
    81   74   82 1   
    82   75   79 1   
    83   83   84 1   
    84   83   91 1   
    85   84   85 1   
    86   84   87 1   
    87   84   92 1   
    88   85   86 2   
    89   85  102 1   
    90   87   88 1   
    91   87   89 1   
    92   87   93 1   
    93   88   90 1   
    94   88   94 1   
    95   88   95 1   
    96   89   96 1   
    97   89   97 1   
    98   89   98 1   
    99   90   99 1   
   100   90  100 1   
   101   90  101 1   
   102  102  103 1   
   103  102  110 1   
   104  103  104 1   
   105  103  106 1   
   106  103  111 1   
   107  104  105 2   
   108  104  114 1   
   109  106  107 1   
   110  106  112 1   
   111  106  113 1   
   112  107  108 1   
   113  107  109 1   
   114  114  115 1   
   115  114  125 1   
   116  115  116 1   
   117  115  118 1   
   118  115  126 1   
   119  116  117 2   
   120  116  134 1   
   121  118  119 1   
   122  118  127 1   
   123  118  128 1   
   124  119  120 ar  
   125  119  121 ar  
   126  120  122 ar  
   127  120  129 1   
   128  121  123 ar  
   129  121  130 1   
   130  122  124 ar  
   131  122  131 1   
   132  123  124 ar  
   133  123  132 1   
   134  124  133 1   
   135  134  135 1   
   136  134  140 1   
   137  135  136 1   
   138  135  138 1   
   139  135  141 1   
   140  136  137 2   
   141  136  148 1   
   142  138  139 1   
   143  138  142 1   
   144  138  143 1   
   145  139  140 1   
   146  139  144 1   
   147  139  145 1   
   148  140  146 1   
   149  140  147 1   
   150  148  149 1   
   151  148  157 1   
   152  149  150 1   
   153  149  152 1   
   154  149  158 1   
   155  150  151 2   
   156  150  163 1   
   157  152  153 1   
   158  152  159 1   
   159  152  160 1   
   160  153  154 1   
   161  153  161 1   
   162  153  162 1   
   163  154  155 1   
   164  154  156 1   
   165  163  164 1   
   166  163  168 1   
   167  164  165 1   
   168  164  166 1   
   169  164  167 1   
   170  170  171 1   
   171  170  172 1   
   172  173  174 1   
   173  173  175 1   
@<TRIPOS>SUBSTRUCTURE
     1 MOL         1 TEMP              0 ****  ****    0 ROOT
