@<TRIPOS>MOLECULE
MOL
  189   185     1     0     0
SMALL
resp


@<TRIPOS>ATOM
      1 C1          0.5070    3.4030   -4.6300 c3        1 MOL     -0.319061
      2 C2          1.0060    2.7930   -3.2480 c         1 MOL      0.697039
      3 O1          0.3910    3.0400   -2.2090 o         1 MOL     -0.585051
      4 H1          1.2290    4.1400   -4.9830 hc        1 MOL      0.080604
      5 H2          0.4130    2.6050   -5.3670 hc        1 MOL      0.080604
      6 H3         -0.4610    3.8830   -4.4870 hc        1 MOL      0.080604
      7 N1          2.0690    1.9620   -3.3110 n         1 MOL     -0.684244
      8 C3          2.6820    1.3680   -2.0890 c3        1 MOL      0.275863
      9 C4          3.6360    2.3860   -1.3130 c         1 MOL      0.367098
     10 O2          4.8780    2.2470   -1.4150 o         1 MOL     -0.499719
     11 C5          3.4410    0.0780   -2.4510 c3        1 MOL     -0.069423
     12 C6          4.1520   -0.4730   -1.2620 c         1 MOL      0.526502
     13 O3          5.0140   -1.2690   -1.4710 o         1 MOL     -0.561803
     14 O4          3.7830   -0.1770   -0.1430 o         1 MOL     -0.561803
     15 H4          2.5490    1.8210   -4.1840 hn        1 MOL      0.338160
     16 H5          1.8930    1.0930   -1.4010 h1        1 MOL     -0.004391
     17 H6          4.1620    0.1610   -3.2630 hc        1 MOL      0.016430
     18 H7          2.7340   -0.6620   -2.8290 hc        1 MOL      0.016430
     19 N2          3.0910    3.4070   -0.7470 n         1 MOL     -0.316064
     20 C7          3.6840    4.6100   -0.1600 c3        1 MOL      0.124943
     21 C8          4.4410    4.4230    1.1080 c         1 MOL      0.468377
     22 O5          5.2020    5.3100    1.4670 o         1 MOL     -0.584328
     23 C9          2.5120    5.6360    0.0100 c3        1 MOL     -0.311820
     24 C10         2.2330    6.3670   -1.2940 c3        1 MOL      0.147708
     25 C11         3.3250    7.3510   -1.7920 c3        1 MOL     -0.220490
     26 C12         3.1580    8.7290   -1.0170 c3        1 MOL      0.068196
     27 N3          3.9950    9.8420   -1.4040 n4        1 MOL     -0.180342
     28 H8          2.0920    3.3780   -0.8290 hn        1 MOL      0.301598
     29 H9          4.4430    5.0280   -0.8240 h1        1 MOL      0.055081
     30 H10         2.8590    6.3440    0.7690 hc        1 MOL      0.104362
     31 H11         1.6150    5.1750    0.4190 hc        1 MOL      0.104362
     32 H12         1.2600    6.8480   -1.3060 hc        1 MOL      0.016622
     33 H13         2.0590    5.5580   -2.0070 hc        1 MOL      0.016622
     34 H14         3.1630    7.4180   -2.8690 hc        1 MOL      0.077481
     35 H15         4.3240    7.0110   -1.5490 hc        1 MOL      0.077481
     36 H16         3.3320    8.4960    0.0330 hx        1 MOL      0.053522
     37 H17         2.1200    8.9760   -1.2050 hx        1 MOL      0.053522
     38 H18         4.9690    9.8160   -1.1210 hn        1 MOL      0.284581
     39 H19         4.0030   10.0370   -2.3950 hn        1 MOL      0.284581
     40 H20         3.6920   10.7150   -1.0060 hn        1 MOL      0.284581
     41 N4          4.3130    3.3240    1.7940 n         1 MOL     -0.283167
     42 C13         5.2670    2.8510    2.7670 c3        1 MOL      0.110707
     43 C14         6.2450    1.7690    2.3140 c         1 MOL      0.454912
     44 O6          7.1190    1.3550    3.0960 o         1 MOL     -0.515318
     45 C15         4.4690    2.4550    3.9910 c3        1 MOL     -0.330861
     46 C16         3.2710    1.5260    3.7230 c         1 MOL      0.792669
     47 O7          2.5020    1.2470    4.7110 o         1 MOL     -0.696605
     48 O8          3.0310    0.9500    2.6220 o         1 MOL     -0.696605
     49 H21         3.5310    2.7360    1.5300 hn        1 MOL      0.200193
     50 H22         5.9140    3.6790    3.0890 h1        1 MOL      0.074674
     51 H23         4.2160    3.4130    4.4420 hc        1 MOL      0.091509
     52 H24         5.1070    1.9780    4.7340 hc        1 MOL      0.091509
     53 N5          6.0340    1.2430    1.0620 n         1 MOL     -0.205147
     54 C17         7.0690    0.4800    0.2630 c3        1 MOL     -0.032141
     55 C18         7.4060   -0.8590    0.8730 c         1 MOL      0.497049
     56 O9          8.6030   -1.0950    1.0410 o         1 MOL     -0.579022
     57 H25         5.1090    1.0760    0.6880 hn        1 MOL     -0.020936
     58 H26         7.9550    1.0830    0.1030 h1        1 MOL      0.063425
     59 H27         6.5720    0.3080   -0.6880 h1        1 MOL      0.063425
     60 N6          6.3630   -1.6670    1.0810 n         1 MOL     -0.233973
     61 C19         6.4690   -3.0090    1.7140 c3        1 MOL      0.078816
     62 C20         6.2910   -4.0970    0.6140 c         1 MOL      0.354948
     63 O10         6.1720   -5.2960    0.9440 o         1 MOL     -0.530747
     64 C21         5.4230   -3.1880    2.9010 c3        1 MOL     -0.318527
     65 C22         4.0080   -2.7700    2.4170 c         1 MOL      0.753056
     66 O11         3.6220   -3.0160    1.2690 o         1 MOL     -0.700998
     67 O12         3.3600   -2.1090    3.1880 o         1 MOL     -0.700998
     68 H28         5.4890   -1.3440    0.7030 hn        1 MOL      0.269661
     69 H29         7.5020   -3.1960    2.0060 h1        1 MOL      0.078187
     70 H30         5.6920   -2.5050    3.7090 hc        1 MOL      0.096067
     71 H31         5.4300   -4.2560    3.1130 hc        1 MOL      0.096067
     72 N7          6.0580   -3.6810   -0.6290 n         1 MOL     -0.198893
     73 C23         5.8630   -4.6150   -1.8050 c3        1 MOL     -0.197998
     74 C24         4.3770   -4.8830   -1.9230 c         1 MOL      0.500714
     75 O13         3.9870   -5.8200   -2.5640 o         1 MOL     -0.542314
     76 H32         6.0860   -2.6890   -0.8060 hn        1 MOL      0.163496
     77 H33         6.3670   -5.5670   -1.6890 h1        1 MOL      0.124440
     78 H34         6.2300   -4.0750   -2.6710 h1        1 MOL      0.124440
     79 N8          3.4450   -4.0610   -1.3520 n         1 MOL     -0.072401
     80 C25         1.9850   -4.3520   -1.5070 c3        1 MOL     -0.347104
     81 C26         1.0400   -3.1940   -1.4410 c         1 MOL      0.819373
     82 O14         1.3530   -2.1940   -0.8220 o         1 MOL     -0.647363
     83 C27         1.5560   -5.4080   -0.4830 c3        1 MOL      0.562858
     84 C28         1.9120   -6.8400   -0.8020 c3        1 MOL     -0.361551
     85 O15         2.1070   -5.2000    0.8040 oh        1 MOL     -0.672493
     86 H35         3.7130   -3.2960   -0.7460 hn        1 MOL      0.058851
     87 H36         1.8720   -4.7070   -2.5280 h1        1 MOL      0.104109
     88 H37         0.4620   -5.3380   -0.4020 h1        1 MOL     -0.058526
     89 H38         2.8830   -4.6520    0.6510 ho        1 MOL      0.442491
     90 H39         1.1430   -7.5590   -0.5240 hc        1 MOL      0.083157
     91 H40         2.1090   -6.9540   -1.8640 hc        1 MOL      0.083157
     92 H41         2.8040   -7.0960   -0.2240 hc        1 MOL      0.083157
     93 N9         -0.1520   -3.3420   -2.0190 n         1 MOL     -0.697533
     94 C29        -1.1910   -2.3130   -2.1710 c3        1 MOL      0.090776
     95 C30        -2.5510   -2.8470   -1.7280 c         1 MOL      0.551092
     96 O16        -3.0500   -3.7660   -2.3520 o         1 MOL     -0.558073
     97 C31        -1.4370   -1.8010   -3.6310 c3        1 MOL      0.159314
     98 C32        -0.1710   -1.0870   -4.1760 c3        1 MOL      0.030296
     99 C33        -2.4930   -0.6840   -3.7730 c3        1 MOL     -0.398143
    100 C34        -0.1450   -1.1410   -5.7420 c3        1 MOL     -0.161865
    101 H42        -0.3250   -4.1540   -2.5950 hn        1 MOL      0.329134
    102 H43        -0.9640   -1.4580   -1.5330 h1        1 MOL      0.060603
    103 H44        -1.6730   -2.6540   -4.2660 hc        1 MOL      0.012732
    104 H45         0.7250   -1.6070   -3.8380 hc        1 MOL      0.024337
    105 H46        -0.0140   -0.0530   -3.8590 hc        1 MOL      0.024337
    106 H47        -3.4750   -1.0070   -3.4360 hc        1 MOL      0.084373
    107 H48        -2.2330    0.1380   -3.1080 hc        1 MOL      0.084373
    108 H49        -2.5720   -0.3290   -4.7980 hc        1 MOL      0.084373
    109 H50         0.7570   -0.6490   -6.0960 hc        1 MOL      0.033302
    110 H51         0.0160   -2.1610   -6.0930 hc        1 MOL      0.033302
    111 H52        -1.0440   -0.7010   -6.1590 hc        1 MOL      0.033302
    112 N10        -2.9750   -2.2350   -0.6300 n         1 MOL     -0.257787
    113 C35        -4.3220   -2.5360    0.0010 c3        1 MOL      0.013529
    114 C36        -5.4090   -1.7720   -0.7840 c         1 MOL      0.336843
    115 O17        -5.2390   -0.7730   -1.5590 o         1 MOL     -0.302244
    116 C37        -4.3690   -2.1530    1.4740 c3        1 MOL      0.051105
    117 C38        -3.4130   -2.9660    2.3590 c3        1 MOL     -0.574624
    118 O18        -4.2070   -0.7740    1.7270 oh        1 MOL     -0.342327
    119 H53        -2.2980   -1.6860   -0.1250 hn        1 MOL      0.194916
    120 H54        -4.4900   -3.5970   -0.1620 h1        1 MOL      0.097452
    121 H55        -5.3660   -2.3810    1.8540 h1        1 MOL      0.081032
    122 H56        -3.7230   -0.7060    2.5560 ho        1 MOL      0.359702
    123 H57        -3.3390   -4.0160    2.0650 hc        1 MOL      0.187694
    124 H58        -2.4150   -2.5540    2.1990 hc        1 MOL      0.187694
    125 H59        -3.7440   -2.7650    3.3750 hc        1 MOL      0.187694
    126 N11        -6.6440   -2.0260   -0.2790 n         1 MOL     -0.331193
    127 C39        -7.9000   -1.3610   -0.7730 c3        1 MOL      0.000236
    128 C40        -7.9890    0.0690   -0.0990 c         1 MOL      0.293666
    129 O19        -8.4450    0.9990   -0.8130 o         1 MOL     -0.453671
    130 C41        -9.1240   -2.2080   -0.5570 c3        1 MOL      0.444644
    131 C42       -10.0210   -2.1900   -1.7550 c3        1 MOL     -0.199760
    132 O20        -8.9390   -3.5060   -0.1800 oh        1 MOL     -0.621843
    133 H60        -6.7250   -2.7530    0.4180 hn        1 MOL      0.190541
    134 H61        -7.7240   -1.2200   -1.8380 h1        1 MOL      0.096968
    135 H62        -9.6760   -1.7270    0.2540 h1        1 MOL     -0.073768
    136 H63        -8.5280   -3.5520    0.6830 ho        1 MOL      0.382977
    137 H64       -10.2070   -1.1450   -2.0310 hc        1 MOL      0.060551
    138 H65        -9.6300   -2.7630   -2.5870 hc        1 MOL      0.060551
    139 H66       -11.0000   -2.6360   -1.5730 hc        1 MOL      0.060551
    140 N12        -7.2050    0.2750    0.9710 n         1 MOL     -0.163853
    141 C43        -6.8280    1.6350    1.5010 c3        1 MOL     -0.188309
    142 C44        -5.9150    2.4330    0.5730 c         1 MOL      0.497622
    143 O21        -6.0690    3.6600    0.4790 o         1 MOL     -0.523823
    144 C45        -6.2110    1.5680    2.9420 c3        1 MOL     -0.243738
    145 C46        -7.1120    0.6980    3.8660 c3        1 MOL     -0.071070
    146 C47        -8.5360    1.3060    3.9970 c3        1 MOL      0.078156
    147 C48        -9.3340    0.7500    5.1840 c3        1 MOL      0.030644
    148 N13       -10.7370    1.2040    5.0070 n4        1 MOL     -0.348864
    149 H67        -6.7520   -0.5050    1.4220 hn        1 MOL      0.165609
    150 H68        -7.7230    2.2440    1.3600 h1        1 MOL      0.093525
    151 H69        -6.2410    2.5690    3.3770 hc        1 MOL      0.142338
    152 H70        -5.1470    1.3560    2.9510 hc        1 MOL      0.142338
    153 H71        -6.6140    0.7280    4.8320 hc        1 MOL      0.026727
    154 H72        -7.1400   -0.3330    3.5120 hc        1 MOL      0.026727
    155 H73        -8.9830    0.9850    3.0530 hc        1 MOL      0.024752
    156 H74        -8.3800    2.3840    4.0460 hc        1 MOL      0.024752
    157 H75        -8.9420    1.0860    6.1460 hx        1 MOL      0.082419
    158 H76        -9.2270   -0.3280    5.1470 hx        1 MOL      0.082419
    159 H77       -11.1010    0.7840    4.1630 hn        1 MOL      0.297309
    160 H78       -11.2480    0.9070    5.8350 hn        1 MOL      0.297309
    161 H79       -10.8350    2.2070    4.9320 hn        1 MOL      0.297309
    162 N14        -4.9020    1.7790   -0.0160 n         1 MOL      0.038848
    163 C49        -3.8740    2.5200   -0.7460 c3        1 MOL     -0.268747
    164 C50        -4.3830    2.8610   -2.1760 c         1 MOL      0.495350
    165 O22        -4.1780    3.9600   -2.6280 o         1 MOL     -0.520694
    166 C51        -2.6170    1.7010   -0.7230 c3        1 MOL      0.254661
    167 C52        -1.9250    1.8130    0.6360 c3        1 MOL     -0.180689
    168 C53        -0.6630    0.8740    0.6720 c         1 MOL      0.761458
    169 O23        -0.7350   -0.3430    0.7940 o         1 MOL     -0.746015
    170 O24         0.4950    1.3870    0.7510 o         1 MOL     -0.746015
    171 H80        -4.7150    0.8370    0.2790 hn        1 MOL     -0.111738
    172 H81        -3.6970    3.4410   -0.1810 h1        1 MOL      0.117793
    173 H82        -1.8670    2.0370   -1.4510 hc        1 MOL      0.000594
    174 H83        -2.8700    0.6960   -1.0600 hc        1 MOL      0.000594
    175 H84        -2.6720    1.6120    1.3990 hc        1 MOL      0.027218
    176 H85        -1.6140    2.8490    0.7940 hc        1 MOL      0.027218
    177 N15        -5.0800    1.8970   -2.8430 n         1 MOL     -0.163247
    178 C54        -5.8250    2.2940   -4.0450 c3        1 MOL     -0.311938
    179 H86        -5.2060    2.9500   -4.6550 h1        1 MOL      0.114837
    180 H87        -6.0880    1.4060   -4.6190 h1        1 MOL      0.114837
    181 H88        -6.7340    2.8200   -3.7530 h1        1 MOL      0.114837
    182 H89        -5.1890    0.9670   -2.4660 hn        1 MOL      0.165491
    183 Ca1         1.7540   -0.9340    1.4190 Ca        1 MOL      1.755739
    184 O25         0.6590   -0.5730    3.8480 oh        1 MOL     -0.881515
    185 H90         1.1630    0.2050    4.1040 ho        1 MOL      0.405834
    186 H91         0.7570   -1.1720    4.5900 ho        1 MOL      0.405834
    187 O26         0.5830   -3.3040    1.9850 oh        1 MOL     -0.881515
    188 H92         0.0630   -3.8590    2.5620 ho        1 MOL      0.405834
    189 H93         1.2640   -3.8830    1.6460 ho        1 MOL      0.405834
@<TRIPOS>BOND
     1    1    2 1   
     2    1    4 1   
     3    1    5 1   
     4    1    6 1   
     5    2    3 2   
     6    2    7 1   
     7    7    8 1   
     8    7   15 1   
     9    8    9 1   
    10    8   11 1   
    11    8   16 1   
    12    9   10 2   
    13    9   19 1   
    14   11   12 1   
    15   11   17 1   
    16   11   18 1   
    17   12   13 1   
    18   12   14 1   
    19   19   20 1   
    20   19   28 1   
    21   20   21 1   
    22   20   23 1   
    23   20   29 1   
    24   21   22 2   
    25   21   41 1   
    26   23   24 1   
    27   23   30 1   
    28   23   31 1   
    29   24   25 1   
    30   24   32 1   
    31   24   33 1   
    32   25   26 1   
    33   25   34 1   
    34   25   35 1   
    35   26   27 1   
    36   26   36 1   
    37   26   37 1   
    38   27   38 1   
    39   27   39 1   
    40   27   40 1   
    41   41   42 1   
    42   41   49 1   
    43   42   43 1   
    44   42   45 1   
    45   42   50 1   
    46   43   44 2   
    47   43   53 1   
    48   45   46 1   
    49   45   51 1   
    50   45   52 1   
    51   46   47 1   
    52   46   48 1   
    53   53   54 1   
    54   53   57 1   
    55   54   55 1   
    56   54   58 1   
    57   54   59 1   
    58   55   56 2   
    59   55   60 1   
    60   60   61 1   
    61   60   68 1   
    62   61   62 1   
    63   61   64 1   
    64   61   69 1   
    65   62   63 2   
    66   62   72 1   
    67   64   65 1   
    68   64   70 1   
    69   64   71 1   
    70   65   66 1   
    71   65   67 1   
    72   72   73 1   
    73   72   76 1   
    74   73   74 1   
    75   73   77 1   
    76   73   78 1   
    77   74   75 2   
    78   74   79 1   
    79   79   80 1   
    80   79   86 1   
    81   80   81 1   
    82   80   83 1   
    83   80   87 1   
    84   81   82 2   
    85   81   93 1   
    86   83   84 1   
    87   83   85 1   
    88   83   88 1   
    89   84   90 1   
    90   84   91 1   
    91   84   92 1   
    92   85   89 1   
    93   93   94 1   
    94   93  101 1   
    95   94   95 1   
    96   94   97 1   
    97   94  102 1   
    98   95   96 2   
    99   95  112 1   
   100   97   98 1   
   101   97   99 1   
   102   97  103 1   
   103   98  100 1   
   104   98  104 1   
   105   98  105 1   
   106   99  106 1   
   107   99  107 1   
   108   99  108 1   
   109  100  109 1   
   110  100  110 1   
   111  100  111 1   
   112  112  113 1   
   113  112  119 1   
   114  113  114 1   
   115  113  116 1   
   116  113  120 1   
   117  114  115 2   
   118  114  126 1   
   119  116  117 1   
   120  116  118 1   
   121  116  121 1   
   122  117  123 1   
   123  117  124 1   
   124  117  125 1   
   125  118  122 1   
   126  126  127 1   
   127  126  133 1   
   128  127  128 1   
   129  127  130 1   
   130  127  134 1   
   131  128  129 2   
   132  128  140 1   
   133  130  131 1   
   134  130  132 1   
   135  130  135 1   
   136  131  137 1   
   137  131  138 1   
   138  131  139 1   
   139  132  136 1   
   140  140  141 1   
   141  140  149 1   
   142  141  142 1   
   143  141  144 1   
   144  141  150 1   
   145  142  143 2   
   146  142  162 1   
   147  144  145 1   
   148  144  151 1   
   149  144  152 1   
   150  145  146 1   
   151  145  153 1   
   152  145  154 1   
   153  146  147 1   
   154  146  155 1   
   155  146  156 1   
   156  147  148 1   
   157  147  157 1   
   158  147  158 1   
   159  148  159 1   
   160  148  160 1   
   161  148  161 1   
   162  162  163 1   
   163  162  171 1   
   164  163  164 1   
   165  163  166 1   
   166  163  172 1   
   167  164  165 2   
   168  164  177 1   
   169  166  167 1   
   170  166  173 1   
   171  166  174 1   
   172  167  168 1   
   173  167  175 1   
   174  167  176 1   
   175  168  169 1   
   176  168  170 1   
   177  177  178 1   
   178  177  182 1   
   179  178  179 1   
   180  178  180 1   
   181  178  181 1   
   182  184  185 1   
   183  184  186 1   
   184  187  188 1   
   185  187  189 1   
@<TRIPOS>SUBSTRUCTURE
     1 MOL         1 TEMP              0 ****  ****    0 ROOT
