@<TRIPOS>MOLECULE
MOL
  183   181     1     0     0
SMALL
resp


@<TRIPOS>ATOM
      1 C1         -0.6320    2.1500    6.3640 c3        1 MOL     -0.337058
      2 C2         -1.0240    2.0870    4.8720 c         1 MOL      0.766699
      3 O1         -0.3340    2.6400    4.0030 o         1 MOL     -0.626950
      4 H1          0.0220    3.0060    6.5320 hc        1 MOL      0.078665
      5 H2         -1.5300    2.2560    6.9730 hc        1 MOL      0.078665
      6 H3         -0.1100    1.2340    6.6420 hc        1 MOL      0.078665
      7 N1         -2.2360    1.6490    4.5360 n         1 MOL     -0.631413
      8 C3         -2.7750    1.5620    3.1120 c3        1 MOL      0.123744
      9 C4         -3.2740    2.9240    2.5580 c         1 MOL      0.501458
     10 O2         -4.1460    3.5610    3.1810 o         1 MOL     -0.564937
     11 C5         -3.8680    0.4760    3.0620 c3        1 MOL     -0.084963
     12 C6         -4.4750    0.3160    1.6010 c         1 MOL      0.746477
     13 O3         -5.6990    0.3060    1.4600 o         1 MOL     -0.676429
     14 O4         -3.7710    0.4720    0.5980 o         1 MOL     -0.676429
     15 H4         -2.7930    1.1670    5.2130 hn        1 MOL      0.310354
     16 H5         -1.9180    1.2240    2.5220 h1        1 MOL      0.061155
     17 H6         -4.6090    0.7790    3.7990 hc        1 MOL      0.001294
     18 H7         -3.5320   -0.4990    3.4310 hc        1 MOL      0.001294
     19 N2         -2.7710    3.2820    1.3580 n         1 MOL     -0.127053
     20 C7         -2.8210    4.6290    0.8120 c3        1 MOL      0.125223
     21 C8         -3.9230    4.7940   -0.2030 c         1 MOL      0.350943
     22 O5         -4.5700    5.8290   -0.0830 o         1 MOL     -0.559744
     23 C9         -1.3860    5.1110    0.3640 c3        1 MOL      0.106143
     24 C10        -0.3660    4.8330    1.5070 c3        1 MOL      0.067956
     25 C11        -1.5440    6.6130    0.1180 c3        1 MOL     -0.240362
     26 C12         1.0520    5.3920    1.2620 c3        1 MOL     -0.247982
     27 H8         -2.3560    2.5370    0.8250 hn        1 MOL      0.002913
     28 H9         -3.1790    5.1680    1.6900 h1        1 MOL      0.005746
     29 H10        -1.2690    4.4740   -0.5080 hc        1 MOL      0.004160
     30 H11        -0.2070    3.7510    1.5930 hc        1 MOL      0.023910
     31 H12        -0.7770    5.1730    2.4490 hc        1 MOL      0.023910
     32 H13        -2.2080    6.8260   -0.7260 hc        1 MOL      0.045973
     33 H14        -1.9850    7.0880    0.9960 hc        1 MOL      0.045973
     34 H15        -0.5900    7.1170   -0.0310 hc        1 MOL      0.045973
     35 H16         1.4120    5.0790    0.2900 hc        1 MOL      0.049136
     36 H17         1.0750    6.4810    1.2630 hc        1 MOL      0.049136
     37 H18         1.7310    4.9970    2.0210 hc        1 MOL      0.049136
     38 N3         -4.0390    3.8230   -1.1170 n         1 MOL     -0.116808
     39 C13        -4.9770    3.8220   -2.1540 c3        1 MOL      0.104204
     40 C14        -6.2440    2.9790   -2.0000 c         1 MOL      0.425330
     41 O6         -6.9870    2.9580   -2.9920 o         1 MOL     -0.531151
     42 C15        -4.1610    3.6080   -3.4400 c3        1 MOL     -0.182444
     43 C16        -3.2930    2.2910   -3.4490 c         1 MOL      0.706729
     44 O7         -2.8640    1.8400   -4.5370 o         1 MOL     -0.646939
     45 O8         -3.0380    1.6550   -2.3570 o         1 MOL     -0.646939
     46 H19        -3.4890    2.9920   -0.9450 hn        1 MOL      0.086677
     47 H20        -5.4210    4.8250   -2.1170 h1        1 MOL      0.032290
     48 H21        -3.5040    4.4830   -3.4350 hc        1 MOL      0.033129
     49 H22        -4.7750    3.7100   -4.3360 hc        1 MOL      0.033129
     50 N4         -6.4500    2.3190   -0.8770 n         1 MOL     -0.253730
     51 C17        -7.7890    1.8740   -0.5090 c3        1 MOL     -0.006257
     52 C18        -8.1840    0.3990   -0.7410 c         1 MOL      0.417745
     53 O9         -9.3450    0.1010   -1.1870 o         1 MOL     -0.606785
     54 H23        -5.6820    2.1310   -0.2410 hn        1 MOL      0.189546
     55 H24        -8.5030    2.5880   -0.9130 h1        1 MOL      0.056140
     56 H25        -7.8190    2.0360    0.5660 h1        1 MOL      0.056140
     57 N5         -7.2550   -0.5400   -0.6390 n         1 MOL     -0.142697
     58 C19        -7.4080   -1.9590   -1.0440 c3        1 MOL      0.022082
     59 C20        -7.0520   -2.9670    0.0510 c         1 MOL      0.322228
     60 O10        -7.0800   -4.1760   -0.1160 o         1 MOL     -0.502896
     61 C21        -6.5780   -2.2500   -2.3200 c3        1 MOL     -0.093184
     62 C22        -5.1460   -1.8880   -2.0460 c         1 MOL      0.568158
     63 O11        -4.3930   -1.4860   -2.9760 o         1 MOL     -0.655815
     64 O12        -4.6280   -1.9840   -0.9040 o         1 MOL     -0.655815
     65 H26        -6.3070   -0.2630   -0.4290 hn        1 MOL      0.176559
     66 H27        -8.4070   -2.2500   -1.3760 h1        1 MOL      0.093469
     67 H28        -6.9900   -1.5570   -3.0490 hc        1 MOL      0.046589
     68 H29        -6.8000   -3.2800   -2.6290 hc        1 MOL      0.046589
     69 N6         -6.7160   -2.4990    1.2830 n         1 MOL     -0.219040
     70 C23        -6.4620   -3.3200    2.4360 c3        1 MOL      0.006818
     71 C24        -5.1620   -4.0020    2.3570 c         1 MOL      0.440917
     72 O13        -4.9490   -4.9680    3.1840 o         1 MOL     -0.611936
     73 H30        -6.6450   -1.5040    1.4500 hn        1 MOL      0.152430
     74 H31        -7.2200   -4.0980    2.5240 h1        1 MOL      0.053477
     75 H32        -6.5790   -2.7220    3.3420 h1        1 MOL      0.053477
     76 N7         -4.1910   -3.6380    1.5070 n         1 MOL     -0.083459
     77 C25        -2.7860   -4.1950    1.4840 c3        1 MOL     -0.053963
     78 C26        -1.6810   -3.1840    1.3010 c         1 MOL      0.662353
     79 O14        -1.8430   -2.1600    0.7630 o         1 MOL     -0.663393
     80 C27        -2.7350   -5.3290    0.4460 c3        1 MOL     -0.138164
     81 C28        -2.9750   -4.9470   -1.0080 c3        1 MOL     -0.429038
     82 C29        -1.7660   -4.2630   -1.7300 c         1 MOL      0.669381
     83 N8         -0.7330   -5.0490   -2.0310 n         1 MOL     -0.763929
     84 O15        -1.8280   -3.0940   -2.1110 o         1 MOL     -0.537152
     85 H33        -4.3390   -2.8360    0.9180 hn        1 MOL      0.102123
     86 H34        -2.5820   -4.7160    2.4230 h1        1 MOL      0.038212
     87 H35        -3.5660   -5.9740    0.7520 hc        1 MOL      0.063483
     88 H36        -1.7920   -5.8560    0.6020 hc        1 MOL      0.063483
     89 H37        -3.8590   -4.2970   -0.9810 hc        1 MOL      0.167142
     90 H38        -3.2250   -5.8170   -1.5960 hc        1 MOL      0.167142
     91 H39        -0.7230   -6.0100   -1.7260 hn        1 MOL      0.361684
     92 H40         0.0640   -4.5300   -2.3900 hn        1 MOL      0.361684
     93 N9         -0.5320   -3.4770    1.8150 n         1 MOL     -0.484400
     94 C30         0.5820   -2.5330    1.8890 c3        1 MOL      0.098037
     95 C31         1.8040   -3.0890    1.1160 c         1 MOL      0.309104
     96 O16         2.4270   -4.0670    1.5480 o         1 MOL     -0.534452
     97 C32         0.8050   -2.2120    3.3390 c3        1 MOL      0.038165
     98 C33         2.1070   -1.3370    3.6570 c3        1 MOL     -0.238598
     99 C34        -0.3490   -1.4920    4.0630 c3        1 MOL     -0.238598
    100 H41        -0.3600   -4.3650    2.2740 hn        1 MOL      0.317795
    101 H42         0.3970   -1.6210    1.3100 h1        1 MOL      0.145657
    102 H43         0.9220   -3.2270    3.7320 hc        1 MOL      0.014693
    103 H44         2.5020   -1.4640    4.6700 hc        1 MOL      0.058977
    104 H45         2.8780   -1.5650    2.9220 hc        1 MOL      0.058977
    105 H46         1.9910   -0.2600    3.5100 hc        1 MOL      0.058977
    106 H47        -0.1800   -1.3950    5.1330 hc        1 MOL      0.058977
    107 H48        -0.6460   -0.5690    3.5670 hc        1 MOL      0.058977
    108 H49        -1.3020   -2.0370    3.9940 hc        1 MOL      0.058977
    109 N10         2.0920   -2.4590   -0.0330 n         1 MOL     -0.121148
    110 C35         3.2780   -2.7610   -0.8620 c3        1 MOL      0.076435
    111 C36         4.5270   -2.1450   -0.2070 c         1 MOL      0.433469
    112 O17         4.4200   -1.3010    0.7010 o         1 MOL     -0.269430
    113 C37         3.0320   -2.2970   -2.2870 c3        1 MOL     -0.384802
    114 C38         1.7730   -2.8680   -2.9470 c         1 MOL      0.747234
    115 N11         0.6470   -2.2230   -2.8380 n         1 MOL     -0.751591
    116 O18         1.7330   -3.9780   -3.5030 o         1 MOL     -0.634376
    117 H50         1.4390   -1.7770   -0.3870 hn        1 MOL      0.098531
    118 H51         3.4510   -3.8410   -0.8320 h1        1 MOL      0.067494
    119 H52         3.8660   -2.5520   -2.9470 hc        1 MOL      0.095577
    120 H53         2.9380   -1.2110   -2.2370 hc        1 MOL      0.095577
    121 H54         0.6230   -1.2750   -2.4970 hn        1 MOL      0.342283
    122 H55        -0.0680   -2.6760   -3.3800 hn        1 MOL      0.342283
    123 N12         5.7740   -2.4440   -0.6850 n         1 MOL     -0.657618
    124 C39         7.0420   -1.8720   -0.1350 c3        1 MOL      0.321115
    125 C40         6.9830   -0.2920   -0.1390 c         1 MOL      0.433342
    126 O19         7.3730    0.3080    0.8620 o         1 MOL     -0.509275
    127 C41         8.3360   -2.1750   -0.9780 c3        1 MOL     -0.182850
    128 C42         9.5890   -1.4750   -0.3660 ca        1 MOL     -0.116785
    129 C43         9.9770   -1.8170    0.9870 ca        1 MOL      0.002621
    130 C44        10.3470   -0.4610   -1.0120 ca        1 MOL      0.002621
    131 C45        11.1220   -1.1670    1.5780 ca        1 MOL     -0.424555
    132 C46        11.4500    0.1310   -0.4130 ca        1 MOL     -0.424555
    133 C47        11.7760   -0.1180    0.9040 ca        1 MOL      0.522849
    134 O20        12.7460    0.5840    1.5210 oh        1 MOL     -0.527063
    135 H56         5.7950   -3.0020   -1.5280 hn        1 MOL      0.338153
    136 H57         7.1570   -2.1100    0.9190 h1        1 MOL      0.032528
    137 H58         8.1630   -1.8440   -2.0000 hc        1 MOL      0.061910
    138 H59         8.4260   -3.2680   -0.9130 hc        1 MOL      0.061910
    139 H60         9.3580   -2.5630    1.4660 ha        1 MOL      0.104881
    140 H61        10.0870   -0.2150   -2.0250 ha        1 MOL      0.104881
    141 H62        11.4390   -1.4280    2.5800 ha        1 MOL      0.170892
    142 H63        11.9610    0.9010   -0.9680 ha        1 MOL      0.170892
    143 H64        13.0610    1.2810    0.9330 ho        1 MOL      0.362236
    144 N13         6.5120    0.2690   -1.2380 n         1 MOL     -0.123862
    145 C48         6.4780    1.7390   -1.3720 c3        1 MOL     -0.281222
    146 C49         5.3000    2.3460   -0.6000 c         1 MOL      0.483432
    147 O21         5.1380    3.5830   -0.5930 o         1 MOL     -0.542115
    148 C50         6.2950    2.1320   -2.8890 c3        1 MOL     -0.123465
    149 C51         4.9210    1.7740   -3.5370 c3        1 MOL     -0.149447
    150 C52         5.0490    1.6310   -5.0730 c         1 MOL      0.648376
    151 O22         5.0980    2.6640   -5.8000 o         1 MOL     -0.719499
    152 O23         5.2560    0.4870   -5.5730 o         1 MOL     -0.719499
    153 H65         6.4220   -0.2770   -2.0860 hn        1 MOL      0.235098
    154 H66         7.4370    2.0950   -1.0200 h1        1 MOL      0.135702
    155 H67         7.1240    1.6850   -3.4230 hc        1 MOL      0.083519
    156 H68         6.3150    3.2260   -2.9680 hc        1 MOL      0.083519
    157 H69         4.1560    2.4660   -3.1860 hc        1 MOL      0.037238
    158 H70         4.6050    0.7770   -3.2080 hc        1 MOL      0.037238
    159 N14         4.4850    1.6130    0.0910 n         1 MOL     -0.181775
    160 C53         3.4650    2.0890    1.1230 c3        1 MOL     -0.023163
    161 C54         3.9920    1.8080    2.5720 c         1 MOL      0.461148
    162 O24         3.8060    2.6470    3.4370 o         1 MOL     -0.548380
    163 C55         2.1190    1.3130    0.9800 c3        1 MOL      0.194323
    164 C56         1.4920    1.6020   -0.3770 c3        1 MOL      0.088347
    165 C57         0.2300    0.8390   -0.5940 c         1 MOL      0.373250
    166 O25        -0.8650    1.4260   -0.5260 o         1 MOL     -0.564244
    167 O26         0.1780   -0.3580   -0.9460 o         1 MOL     -0.564244
    168 H71         4.7310    0.6410    0.0790 hn        1 MOL      0.031998
    169 H72         3.3630    3.1690    1.0450 h1        1 MOL      0.087455
    170 H73         1.4650    1.6380    1.7800 hc        1 MOL     -0.006068
    171 H74         2.3300    0.2450    1.0620 hc        1 MOL     -0.006068
    172 H75         2.2400    1.3640   -1.1330 hc        1 MOL     -0.010520
    173 H76         1.3210    2.6750   -0.3640 hc        1 MOL     -0.010520
    174 N15         4.8020    0.7850    2.7150 n         1 MOL     -0.051158
    175 C58         5.5260    0.4930    3.9010 c3        1 MOL     -0.311044
    176 H77         6.1420    1.3510    4.1700 h1        1 MOL      0.102460
    177 H78         4.8280    0.2790    4.7100 h1        1 MOL      0.102460
    178 H79         6.1650   -0.3740    3.7330 h1        1 MOL      0.102460
    179 H80         4.8390    0.0920    1.9790 hn        1 MOL      0.054019
    180 Ca1        -2.4440   -0.6330   -1.2920 Ca        1 MOL      1.696174
    181 O27        -1.5990   -0.2020   -3.9090 oh        1 MOL     -0.833783
    182 H81        -2.1100    0.5490   -4.1930 ho        1 MOL      0.377270
    183 H82        -0.7020   -0.0160   -4.2110 ho        1 MOL      0.377270
@<TRIPOS>BOND
     1    1    2 1   
     2    1    4 1   
     3    1    5 1   
     4    1    6 1   
     5    2    3 2   
     6    2    7 1   
     7    7    8 1   
     8    7   15 1   
     9    8    9 1   
    10    8   11 1   
    11    8   16 1   
    12    9   10 2   
    13    9   19 1   
    14   11   12 1   
    15   11   17 1   
    16   11   18 1   
    17   12   13 1   
    18   12   14 1   
    19   19   20 1   
    20   19   27 1   
    21   20   21 1   
    22   20   23 1   
    23   20   28 1   
    24   21   22 2   
    25   21   38 1   
    26   23   24 1   
    27   23   25 1   
    28   23   29 1   
    29   24   26 1   
    30   24   30 1   
    31   24   31 1   
    32   25   32 1   
    33   25   33 1   
    34   25   34 1   
    35   26   35 1   
    36   26   36 1   
    37   26   37 1   
    38   38   39 1   
    39   38   46 1   
    40   39   40 1   
    41   39   42 1   
    42   39   47 1   
    43   40   41 2   
    44   40   50 1   
    45   42   43 1   
    46   42   48 1   
    47   42   49 1   
    48   43   44 1   
    49   43   45 1   
    50   50   51 1   
    51   50   54 1   
    52   51   52 1   
    53   51   55 1   
    54   51   56 1   
    55   52   53 2   
    56   52   57 1   
    57   57   58 1   
    58   57   65 1   
    59   58   59 1   
    60   58   61 1   
    61   58   66 1   
    62   59   60 2   
    63   59   69 1   
    64   61   62 1   
    65   61   67 1   
    66   61   68 1   
    67   62   63 1   
    68   62   64 1   
    69   69   70 1   
    70   69   73 1   
    71   70   71 1   
    72   70   74 1   
    73   70   75 1   
    74   71   72 2   
    75   71   76 1   
    76   76   77 1   
    77   76   85 1   
    78   77   78 1   
    79   77   80 1   
    80   77   86 1   
    81   78   79 2   
    82   78   93 1   
    83   80   81 1   
    84   80   87 1   
    85   80   88 1   
    86   81   82 1   
    87   81   89 1   
    88   81   90 1   
    89   82   83 1   
    90   82   84 2   
    91   83   91 1   
    92   83   92 1   
    93   93   94 1   
    94   93  100 1   
    95   94   95 1   
    96   94   97 1   
    97   94  101 1   
    98   95   96 2   
    99   95  109 1   
   100   97   98 1   
   101   97   99 1   
   102   97  102 1   
   103   98  103 1   
   104   98  104 1   
   105   98  105 1   
   106   99  106 1   
   107   99  107 1   
   108   99  108 1   
   109  109  110 1   
   110  109  117 1   
   111  110  111 1   
   112  110  113 1   
   113  110  118 1   
   114  111  112 2   
   115  111  123 1   
   116  113  114 1   
   117  113  119 1   
   118  113  120 1   
   119  114  115 1   
   120  114  116 2   
   121  115  121 1   
   122  115  122 1   
   123  123  124 1   
   124  123  135 1   
   125  124  125 1   
   126  124  127 1   
   127  124  136 1   
   128  125  126 2   
   129  125  144 1   
   130  127  128 1   
   131  127  137 1   
   132  127  138 1   
   133  128  129 ar  
   134  128  130 ar  
   135  129  131 ar  
   136  129  139 1   
   137  130  132 ar  
   138  130  140 1   
   139  131  133 ar  
   140  131  141 1   
   141  132  133 ar  
   142  132  142 1   
   143  133  134 1   
   144  134  143 1   
   145  144  145 1   
   146  144  153 1   
   147  145  146 1   
   148  145  148 1   
   149  145  154 1   
   150  146  147 2   
   151  146  159 1   
   152  148  149 1   
   153  148  155 1   
   154  148  156 1   
   155  149  150 1   
   156  149  157 1   
   157  149  158 1   
   158  150  151 1   
   159  150  152 1   
   160  159  160 1   
   161  159  168 1   
   162  160  161 1   
   163  160  163 1   
   164  160  169 1   
   165  161  162 2   
   166  161  174 1   
   167  163  164 1   
   168  163  170 1   
   169  163  171 1   
   170  164  165 1   
   171  164  172 1   
   172  164  173 1   
   173  165  166 1   
   174  165  167 1   
   175  174  175 1   
   176  174  179 1   
   177  175  176 1   
   178  175  177 1   
   179  175  178 1   
   180  181  182 1   
   181  181  183 1   
@<TRIPOS>SUBSTRUCTURE
     1 MOL         1 TEMP              0 ****  ****    0 ROOT
