@<TRIPOS>MOLECULE
MOL
  189   185     1     0     0
SMALL
resp


@<TRIPOS>ATOM
      1 C1         -1.8330    1.4080    6.9450 c3        1 MOL     -0.343773
      2 C2         -1.8630    1.5920    5.3610 c         1 MOL      0.696520
      3 O1         -0.9800    2.2790    4.8450 o         1 MOL     -0.582421
      4 H1         -2.1420    0.3940    7.1980 hc        1 MOL      0.087698
      5 H2         -0.8210    1.5810    7.3130 hc        1 MOL      0.087698
      6 H3         -2.5150    2.1210    7.4080 hc        1 MOL      0.087698
      7 N1         -2.8370    1.0220    4.6590 n         1 MOL     -0.614835
      8 C3         -2.8470    0.9350    3.2190 c3        1 MOL     -0.017520
      9 C4         -3.1760    2.4000    2.7450 c         1 MOL      0.643418
     10 O2         -4.0850    3.1610    3.1800 o         1 MOL     -0.573872
     11 C5         -3.8720   -0.0670    2.7230 c3        1 MOL     -0.019195
     12 C6         -4.2120    0.0260    1.2590 c         1 MOL      0.591485
     13 O3         -5.4160    0.1560    0.9060 o         1 MOL     -0.612273
     14 O4         -3.3050    0.0230    0.4170 o         1 MOL     -0.612273
     15 H4         -3.4950    0.4860    5.2010 hn        1 MOL      0.340032
     16 H5         -1.8700    0.5990    2.8650 h1        1 MOL     -0.006219
     17 H6         -4.7730    0.1280    3.2930 hc        1 MOL      0.015945
     18 H7         -3.5870   -1.0950    2.9500 hc        1 MOL      0.015945
     19 N2         -2.3910    2.8450    1.7930 n         1 MOL     -0.024337
     20 C7         -2.3480    4.2680    1.3500 c3        1 MOL     -0.723275
     21 C8         -3.3360    4.6100    0.2190 c         1 MOL      0.938432
     22 O5         -3.8890    5.7020    0.2000 o         1 MOL     -0.619560
     23 C9         -0.8960    4.3970    0.8200 c3        1 MOL      0.492315
     24 C10        -0.4050    5.7190    0.1360 c3        1 MOL     -0.624721
     25 C11        -0.6110    6.9490    0.9420 c3        1 MOL      0.310656
     26 C12         0.3920    8.0140    0.4240 c3        1 MOL     -0.146522
     27 N3          0.4940    9.1930    1.3640 n4        1 MOL     -0.373626
     28 H8         -1.7960    2.1610    1.3370 hn        1 MOL     -0.008747
     29 H9         -2.4750    4.8570    2.2540 h1        1 MOL      0.216933
     30 H10        -0.8080    3.6260    0.0610 hc        1 MOL     -0.006535
     31 H11        -0.0930    4.1160    1.5060 hc        1 MOL     -0.006535
     32 H12        -0.7870    5.9170   -0.8690 hc        1 MOL      0.122520
     33 H13         0.6620    5.5040    0.0650 hc        1 MOL      0.122520
     34 H14        -0.5580    6.7160    2.0110 hc        1 MOL     -0.010956
     35 H15        -1.6270    7.3450    0.8870 hc        1 MOL     -0.010956
     36 H16        -0.1530    8.2630   -0.4880 hx        1 MOL      0.143179
     37 H17         1.3920    7.6100    0.2490 hx        1 MOL      0.143179
     38 H18        -0.4470    9.5240    1.4830 hn        1 MOL      0.333767
     39 H19         0.6660    8.9480    2.3200 hn        1 MOL      0.333767
     40 H20         1.2470    9.7750    1.0230 hn        1 MOL      0.333767
     41 N4         -3.5480    3.6830   -0.6900 n         1 MOL     -0.782592
     42 C13        -4.1220    3.8290   -2.0100 c3        1 MOL      0.131062
     43 C14        -5.3920    2.9690   -2.2130 c         1 MOL      0.454415
     44 O6         -5.9030    3.0200   -3.3200 o         1 MOL     -0.530407
     45 C15        -3.1000    3.6950   -3.1590 c3        1 MOL     -0.182991
     46 C16        -2.1180    2.5080   -3.0610 c         1 MOL      0.889489
     47 O7         -2.2700    1.6930   -2.1540 o         1 MOL     -0.776719
     48 O8         -1.2760    2.4130   -3.9850 o         1 MOL     -0.776719
     49 H21        -3.0200    2.8250   -0.6150 hn        1 MOL      0.470129
     50 H22        -4.4830    4.8440   -2.1600 h1        1 MOL      0.065568
     51 H23        -2.5350    4.6190   -3.2390 hc        1 MOL      0.044668
     52 H24        -3.5980    3.5290   -4.1050 hc        1 MOL      0.044668
     53 N5         -5.8510    2.1790   -1.2380 n         1 MOL     -0.151363
     54 C17        -7.1160    1.4930   -1.4480 c3        1 MOL     -0.276082
     55 C18        -7.0050    0.1880   -2.2350 c         1 MOL      0.638174
     56 O9         -7.6740    0.0240   -3.2380 o         1 MOL     -0.557707
     57 H25        -5.2100    1.8840   -0.5090 hn        1 MOL      0.180198
     58 H26        -7.7560    2.2230   -1.9410 h1        1 MOL      0.106000
     59 H27        -7.5600    1.2770   -0.4730 h1        1 MOL      0.106000
     60 N6         -6.2040   -0.7640   -1.7060 n         1 MOL     -0.241173
     61 C19        -6.2470   -2.1910   -2.0460 c3        1 MOL      0.011173
     62 C20        -6.4290   -3.1610   -0.8800 c         1 MOL      0.396175
     63 O10        -6.9760   -4.2610   -0.9930 o         1 MOL     -0.498610
     64 C21        -5.1500   -2.5470   -3.1100 c3        1 MOL     -0.153247
     65 C22        -3.7610   -2.0510   -2.6410 c         1 MOL      0.550334
     66 O11        -3.1960   -2.5560   -1.6410 o         1 MOL     -0.622693
     67 O12        -3.3890   -0.9510   -2.9430 o         1 MOL     -0.622693
     68 H28        -5.6110   -0.5020   -0.9360 hn        1 MOL      0.155498
     69 H29        -7.1480   -2.2700   -2.6580 h1        1 MOL      0.073755
     70 H30        -5.3510   -2.1160   -4.0930 hc        1 MOL      0.059873
     71 H31        -5.0290   -3.6240   -3.1950 hc        1 MOL      0.059873
     72 N7         -5.8570   -2.7500    0.3270 n         1 MOL     -0.249130
     73 C23        -5.8310   -3.5940    1.6070 c3        1 MOL      0.044868
     74 C24        -4.4720   -4.4370    1.6870 c         1 MOL      0.390164
     75 O13        -4.4940   -5.4510    2.3380 o         1 MOL     -0.548007
     76 H32        -5.5910   -1.7940    0.4510 hn        1 MOL      0.137255
     77 H33        -6.6110   -4.3550    1.7200 h1        1 MOL      0.058466
     78 H34        -5.9800   -2.9850    2.5000 h1        1 MOL      0.058466
     79 N8         -3.4400   -4.1080    0.9410 n         1 MOL     -0.027842
     80 C25        -2.1120   -4.7250    1.0270 c3        1 MOL     -0.088453
     81 C26        -1.0290   -3.7080    1.0680 c         1 MOL      0.617303
     82 O14        -1.2390   -2.5550    0.7300 o         1 MOL     -0.646578
     83 C27        -1.7230   -5.5600   -0.2220 c3        1 MOL      0.258256
     84 C28        -2.7660   -6.6070   -0.4210 c3        1 MOL     -0.399795
     85 O15        -1.6350   -4.8790   -1.4350 oh        1 MOL     -0.558686
     86 H35        -3.4540   -3.2740    0.3640 hn        1 MOL      0.060830
     87 H36        -2.1190   -5.3300    1.9270 h1        1 MOL      0.079427
     88 H37        -0.7390   -5.9920   -0.0720 h1        1 MOL      0.048461
     89 H38        -2.3670   -4.2590   -1.4220 ho        1 MOL      0.366262
     90 H39        -3.7000   -6.0850   -0.6280 hc        1 MOL      0.108884
     91 H40        -2.5750   -7.2320   -1.2890 hc        1 MOL      0.108884
     92 H41        -2.7820   -7.2440    0.4650 hc        1 MOL      0.108884
     93 N9          0.1690   -4.1210    1.3630 n         1 MOL     -0.595663
     94 C29         1.2550   -3.2190    1.8140 c3        1 MOL      0.229853
     95 C30         2.4970   -3.6280    0.9700 c         1 MOL      0.366309
     96 O16         3.1190   -4.6830    1.1790 o         1 MOL     -0.527455
     97 C31         1.4390   -3.2390    3.3110 c3        1 MOL      0.086344
     98 C32         0.1550   -2.7060    4.0590 c3        1 MOL     -0.275483
     99 C33         2.6720   -2.5290    3.7670 c3        1 MOL     -0.313720
    100 C34        -0.3050   -1.2790    3.8640 c3        1 MOL      0.341984
    101 H42         0.2760   -5.0860    1.6410 hn        1 MOL      0.295231
    102 H43         1.0720   -2.1690    1.6050 h1        1 MOL      0.035895
    103 H44         1.6460   -4.2950    3.5040 hc        1 MOL      0.023127
    104 H45         0.3420   -2.7760    5.1330 hc        1 MOL      0.042982
    105 H46        -0.7330   -3.2960    3.8090 hc        1 MOL      0.042982
    106 H47         2.7250   -1.5100    3.3950 hc        1 MOL      0.083939
    107 H48         2.6980   -2.4460    4.8560 hc        1 MOL      0.083939
    108 H49         3.5100   -3.0750    3.3250 hc        1 MOL      0.083939
    109 H50        -1.0680   -1.0830    4.6180 hc        1 MOL     -0.035882
    110 H51         0.5380   -0.6220    4.0280 hc        1 MOL     -0.035882
    111 H52        -0.8000   -1.2160    2.8870 hc        1 MOL     -0.035882
    112 N10         2.9850   -2.6550    0.2070 n         1 MOL     -0.057748
    113 C35         4.1700   -2.7500   -0.7050 c3        1 MOL      0.009242
    114 C36         5.3820   -2.0670   -0.0370 c         1 MOL      0.282586
    115 O17         5.3080   -1.3180    0.9810 o         1 MOL     -0.327750
    116 C37         3.9270   -2.0190   -2.0430 c3        1 MOL      0.090905
    117 C38         2.9430   -2.8650   -2.8800 c3        1 MOL     -0.431350
    118 O18         3.4460   -0.6810   -1.8840 oh        1 MOL     -0.110941
    119 H53         2.4200   -1.8380    0.0230 hn        1 MOL      0.051765
    120 H54         4.3540   -3.8110   -0.8860 h1        1 MOL      0.076677
    121 H55         4.8380   -1.9790   -2.6480 h1        1 MOL      0.041336
    122 H56         2.5380   -0.6900   -1.5700 ho        1 MOL      0.095280
    123 H57         3.4000   -3.8300   -3.0830 hc        1 MOL      0.124912
    124 H58         1.9660   -3.0350   -2.4200 hc        1 MOL      0.124912
    125 H59         2.7310   -2.2570   -3.7650 hc        1 MOL      0.124912
    126 N11         6.5440   -2.2400   -0.6890 n         1 MOL     -0.292877
    127 C39         7.7470   -1.4270   -0.5820 c3        1 MOL     -0.157199
    128 C40         7.5080    0.0810   -0.3850 c         1 MOL      0.387399
    129 O19         8.2620    0.7790    0.3130 o         1 MOL     -0.521472
    130 C41         8.8520   -1.5410   -1.6750 c3        1 MOL      0.212735
    131 C42         9.6280   -2.8470   -1.5160 c3        1 MOL     -0.313567
    132 O20         8.2340   -1.3970   -2.8940 oh        1 MOL     -0.588250
    133 H60         6.5640   -2.9320   -1.4260 hn        1 MOL      0.286980
    134 H61         8.1980   -1.8190    0.3270 h1        1 MOL      0.148397
    135 H62         9.5680   -0.7240   -1.6340 h1        1 MOL      0.075218
    136 H63         8.9300   -1.1350   -3.5060 ho        1 MOL      0.403643
    137 H64        10.3540   -3.0680   -2.2980 hc        1 MOL      0.097329
    138 H65        10.1840   -2.8870   -0.5730 hc        1 MOL      0.097329
    139 H66         8.9080   -3.6720   -1.5230 hc        1 MOL      0.097329
    140 N12         6.5060    0.6550   -1.0420 n         1 MOL     -0.098373
    141 C43         6.2410    2.0710   -1.0420 c3        1 MOL     -0.207221
    142 C44         5.3590    2.5310    0.1450 c         1 MOL      0.502359
    143 O21         4.9950    3.7020    0.2080 o         1 MOL     -0.543293
    144 C45         5.4150    2.2840   -2.3600 c3        1 MOL     -0.092406
    145 C46         5.9300    1.7500   -3.7460 c3        1 MOL      0.076655
    146 C47         4.7900    1.9050   -4.7410 c3        1 MOL     -0.103272
    147 C48         3.6410    0.8650   -4.5700 c3        1 MOL      0.261643
    148 N13         2.5380    1.2820   -5.5070 n4        1 MOL     -0.518177
    149 H67         5.9890    0.0460   -1.6550 hn        1 MOL      0.185831
    150 H68         7.1310    2.6840   -1.0200 h1        1 MOL      0.156963
    151 H69         5.2840    3.3530   -2.5470 hc        1 MOL      0.055250
    152 H70         4.4640    1.7790   -2.1930 hc        1 MOL      0.055250
    153 H71         6.2190    0.7030   -3.6240 hc        1 MOL      0.002304
    154 H72         6.8130    2.2940   -4.0620 hc        1 MOL      0.002304
    155 H73         5.2170    1.7440   -5.7320 hc        1 MOL      0.039846
    156 H74         4.3410    2.8860   -4.6060 hc        1 MOL      0.039846
    157 H75         3.2520    0.7680   -3.5670 hx        1 MOL     -0.027454
    158 H76         3.9530   -0.1590   -4.7680 hx        1 MOL     -0.027454
    159 H77         2.8800    1.2650   -6.4580 hn        1 MOL      0.352050
    160 H78         1.7550    0.6460   -5.4140 hn        1 MOL      0.352050
    161 H79         2.2480    2.2410   -5.3690 hn        1 MOL      0.352050
    162 N14         4.9630    1.5670    0.9630 n         1 MOL     -0.165915
    163 C49         4.0830    1.6540    2.1490 c3        1 MOL     -0.277576
    164 C50         4.5550    1.1730    3.5180 c         1 MOL      0.477387
    165 O22         3.8430    1.2140    4.5240 o         1 MOL     -0.519466
    166 C51         2.7340    0.8250    1.9260 c3        1 MOL      0.091770
    167 C52         1.9780    1.4410    0.7370 c3        1 MOL     -0.078042
    168 C53         0.8570    0.5890    0.2450 c         1 MOL      0.434438
    169 O23         1.1390   -0.4950   -0.3460 o         1 MOL     -0.519013
    170 O24        -0.3400    0.9000    0.4580 o         1 MOL     -0.519013
    171 H80         5.2460    0.6220    0.7550 hn        1 MOL      0.113054
    172 H81         3.9320    2.7200    2.3470 h1        1 MOL      0.157676
    173 H82         2.0170    0.8940    2.7530 hc        1 MOL      0.055308
    174 H83         3.0000   -0.2260    1.8110 hc        1 MOL      0.055308
    175 H84         2.7460    1.4400   -0.0440 hc        1 MOL      0.005643
    176 H85         1.7780    2.4970    0.9320 hc        1 MOL      0.005643
    177 N15         5.6830    0.5280    3.4710 n         1 MOL     -0.280382
    178 C54         6.2780   -0.3050    4.4900 c3        1 MOL     -0.211340
    179 H86         5.8640   -1.3120    4.4240 h1        1 MOL      0.105137
    180 H87         7.3570   -0.3460    4.3420 h1        1 MOL      0.105137
    181 H88         6.0610    0.1120    5.4740 h1        1 MOL      0.105137
    182 H89         6.1280    0.5660    2.5630 hn        1 MOL      0.250885
    183 Ca1        -1.4800   -0.6050   -1.2170 Ca        1 MOL      1.670859
    184 O25        -0.1260    0.2410   -3.2850 oh        1 MOL     -0.800569
    185 H90        -0.4710    1.0760   -3.6110 ho        1 MOL      0.371542
    186 H91         0.2130   -0.2030   -4.0640 ho        1 MOL      0.371542
    187 O26        -0.5880   -2.5940   -2.7470 oh        1 MOL     -0.800569
    188 H92        -0.0720   -2.7040   -3.5430 ho        1 MOL      0.371542
    189 H93        -0.6070   -3.4730   -2.3580 ho        1 MOL      0.371542
@<TRIPOS>BOND
     1    1    2 1   
     2    1    4 1   
     3    1    5 1   
     4    1    6 1   
     5    2    3 2   
     6    2    7 1   
     7    7    8 1   
     8    7   15 1   
     9    8    9 1   
    10    8   11 1   
    11    8   16 1   
    12    9   10 2   
    13    9   19 1   
    14   11   12 1   
    15   11   17 1   
    16   11   18 1   
    17   12   13 1   
    18   12   14 1   
    19   19   20 1   
    20   19   28 1   
    21   20   21 1   
    22   20   23 1   
    23   20   29 1   
    24   21   22 2   
    25   21   41 1   
    26   23   24 1   
    27   23   30 1   
    28   23   31 1   
    29   24   25 1   
    30   24   32 1   
    31   24   33 1   
    32   25   26 1   
    33   25   34 1   
    34   25   35 1   
    35   26   27 1   
    36   26   36 1   
    37   26   37 1   
    38   27   38 1   
    39   27   39 1   
    40   27   40 1   
    41   41   42 1   
    42   41   49 1   
    43   42   43 1   
    44   42   45 1   
    45   42   50 1   
    46   43   44 2   
    47   43   53 1   
    48   45   46 1   
    49   45   51 1   
    50   45   52 1   
    51   46   47 1   
    52   46   48 1   
    53   53   54 1   
    54   53   57 1   
    55   54   55 1   
    56   54   58 1   
    57   54   59 1   
    58   55   56 2   
    59   55   60 1   
    60   60   61 1   
    61   60   68 1   
    62   61   62 1   
    63   61   64 1   
    64   61   69 1   
    65   62   63 2   
    66   62   72 1   
    67   64   65 1   
    68   64   70 1   
    69   64   71 1   
    70   65   66 1   
    71   65   67 1   
    72   72   73 1   
    73   72   76 1   
    74   73   74 1   
    75   73   77 1   
    76   73   78 1   
    77   74   75 2   
    78   74   79 1   
    79   79   80 1   
    80   79   86 1   
    81   80   81 1   
    82   80   83 1   
    83   80   87 1   
    84   81   82 2   
    85   81   93 1   
    86   83   84 1   
    87   83   85 1   
    88   83   88 1   
    89   84   90 1   
    90   84   91 1   
    91   84   92 1   
    92   85   89 1   
    93   93   94 1   
    94   93  101 1   
    95   94   95 1   
    96   94   97 1   
    97   94  102 1   
    98   95   96 2   
    99   95  112 1   
   100   97   98 1   
   101   97   99 1   
   102   97  103 1   
   103   98  100 1   
   104   98  104 1   
   105   98  105 1   
   106   99  106 1   
   107   99  107 1   
   108   99  108 1   
   109  100  109 1   
   110  100  110 1   
   111  100  111 1   
   112  112  113 1   
   113  112  119 1   
   114  113  114 1   
   115  113  116 1   
   116  113  120 1   
   117  114  115 2   
   118  114  126 1   
   119  116  117 1   
   120  116  118 1   
   121  116  121 1   
   122  117  123 1   
   123  117  124 1   
   124  117  125 1   
   125  118  122 1   
   126  126  127 1   
   127  126  133 1   
   128  127  128 1   
   129  127  130 1   
   130  127  134 1   
   131  128  129 2   
   132  128  140 1   
   133  130  131 1   
   134  130  132 1   
   135  130  135 1   
   136  131  137 1   
   137  131  138 1   
   138  131  139 1   
   139  132  136 1   
   140  140  141 1   
   141  140  149 1   
   142  141  142 1   
   143  141  144 1   
   144  141  150 1   
   145  142  143 2   
   146  142  162 1   
   147  144  145 1   
   148  144  151 1   
   149  144  152 1   
   150  145  146 1   
   151  145  153 1   
   152  145  154 1   
   153  146  147 1   
   154  146  155 1   
   155  146  156 1   
   156  147  148 1   
   157  147  157 1   
   158  147  158 1   
   159  148  159 1   
   160  148  160 1   
   161  148  161 1   
   162  162  163 1   
   163  162  171 1   
   164  163  164 1   
   165  163  166 1   
   166  163  172 1   
   167  164  165 2   
   168  164  177 1   
   169  166  167 1   
   170  166  173 1   
   171  166  174 1   
   172  167  168 1   
   173  167  175 1   
   174  167  176 1   
   175  168  169 1   
   176  168  170 1   
   177  177  178 1   
   178  177  182 1   
   179  178  179 1   
   180  178  180 1   
   181  178  181 1   
   182  184  185 1   
   183  184  186 1   
   184  187  188 1   
   185  187  189 1   
@<TRIPOS>SUBSTRUCTURE
     1 MOL         1 TEMP              0 ****  ****    0 ROOT
