@<TRIPOS>MOLECULE
MOL
  175   173     1     0     0
SMALL
resp


@<TRIPOS>ATOM
      1 C1          0.0440    4.3850    5.5830 c3        1 MOL     -0.451756
      2 C2         -0.5100    4.2480    4.1090 c         1 MOL      0.710652
      3 O1          0.2390    4.3680    3.1220 o         1 MOL     -0.537433
      4 H1          0.1140    5.4410    5.8480 hc        1 MOL      0.115719
      5 H2         -0.6310    3.8820    6.2740 hc        1 MOL      0.115719
      6 H3          1.0330    3.9300    5.6430 hc        1 MOL      0.115719
      7 N1         -1.8330    3.9270    3.9120 n         1 MOL     -0.636942
      8 C3         -2.3160    3.5310    2.5910 c3        1 MOL      0.024950
      9 C4         -2.6260    4.7190    1.6510 c         1 MOL      0.612093
     10 O2         -3.0020    5.8070    2.1620 o         1 MOL     -0.596894
     11 C5         -3.6370    2.7290    2.7420 c3        1 MOL     -0.343755
     12 C6         -4.2880    2.1950    1.5350 c         1 MOL      0.852553
     13 O3         -5.4900    1.8820    1.6720 o         1 MOL     -0.714324
     14 O4         -3.6810    2.0990    0.4610 o         1 MOL     -0.714324
     15 H4         -2.5180    4.0850    4.6490 hn        1 MOL      0.344975
     16 H5         -1.5520    2.9040    2.1410 h1        1 MOL      0.171741
     17 H6         -4.3260    3.4340    3.2160 hc        1 MOL      0.076448
     18 H7         -3.6920    1.8910    3.4350 hc        1 MOL      0.076448
     19 N2         -2.4320    4.6060    0.3600 n         1 MOL     -0.457871
     20 C7         -2.5910    5.5610   -0.6890 c3        1 MOL      0.254440
     21 C8         -3.3610    5.1180   -1.9570 c         1 MOL      0.437011
     22 O5         -3.5780    5.8960   -2.9450 o         1 MOL     -0.566556
     23 C9         -1.1450    6.0130   -1.0110 c3        1 MOL     -0.188384
     24 H8         -1.9420    3.7330    0.2370 hn        1 MOL      0.248434
     25 H9         -3.1650    6.3920   -0.2870 h1        1 MOL      0.012915
     26 H10        -0.5350    5.2350   -1.4710 hc        1 MOL      0.050423
     27 H11        -1.1400    6.7510   -1.8080 hc        1 MOL      0.050423
     28 H12        -0.6720    6.5100   -0.1640 hc        1 MOL      0.050423
     29 N3         -3.8370    3.8150   -2.0040 n         1 MOL     -0.374789
     30 C10        -4.6290    3.2040   -3.1550 c3        1 MOL      0.124957
     31 C11        -5.7490    2.2090   -2.7000 c         1 MOL      0.370807
     32 O6         -6.4930    1.7610   -3.5600 o         1 MOL     -0.528313
     33 C12        -3.6490    2.4620   -4.1250 c3        1 MOL     -0.310164
     34 C13        -2.8070    1.3790   -3.4600 c         1 MOL      0.723962
     35 O7         -3.1470    0.8080   -2.3840 o         1 MOL     -0.683174
     36 O8         -1.6870    1.1640   -4.0420 o         1 MOL     -0.683174
     37 H13        -3.6810    3.2030   -1.2220 hn        1 MOL      0.236733
     38 H14        -5.1160    4.0340   -3.6640 h1        1 MOL      0.067810
     39 H15        -2.9050    3.2090   -4.3880 hc        1 MOL      0.085944
     40 H16        -4.2660    2.1150   -4.9510 hc        1 MOL      0.085944
     41 N4         -5.9300    1.8840   -1.4210 n         1 MOL     -0.254803
     42 C14        -7.1230    1.1370   -0.9770 c3        1 MOL     -0.204563
     43 C15        -7.2260   -0.3170   -1.2870 c         1 MOL      0.451403
     44 O9         -8.2790   -0.8950   -1.1350 o         1 MOL     -0.578111
     45 H17        -5.4130    2.3730   -0.7020 hn        1 MOL      0.184350
     46 H18        -7.9970    1.6120   -1.4320 h1        1 MOL      0.133743
     47 H19        -7.2990    1.2720    0.0950 h1        1 MOL      0.133743
     48 N5         -6.1300   -0.9540   -1.7960 n         1 MOL     -0.175080
     49 C16        -6.1670   -2.3710   -2.2300 c3        1 MOL     -0.048634
     50 C17        -6.3020   -3.3410   -1.0360 c         1 MOL      0.467283
     51 O10        -6.2830   -4.5910   -1.3000 o         1 MOL     -0.559438
     52 C18        -5.0290   -2.7850   -3.2410 c3        1 MOL     -0.168034
     53 C19        -3.5980   -2.4520   -2.6380 c         1 MOL      0.476573
     54 N6         -2.5170   -2.3660   -3.3770 n         1 MOL     -0.600925
     55 O11        -3.4590   -2.2980   -1.4110 o         1 MOL     -0.350766
     56 H20        -5.2770   -0.4560   -2.0010 hn        1 MOL      0.215317
     57 H21        -7.0750   -2.5400   -2.7860 h1        1 MOL      0.118123
     58 H22        -5.2160   -2.2810   -4.1930 hc        1 MOL      0.067419
     59 H23        -4.9490   -3.8440   -3.4830 hc        1 MOL      0.067419
     60 H24        -2.6410   -2.6420   -4.3430 hn        1 MOL      0.320712
     61 H25        -1.6460   -2.0370   -2.9750 hn        1 MOL      0.320712
     62 N7         -6.5790   -2.9300    0.2310 n         1 MOL     -0.359427
     63 C20        -6.3480   -3.8880    1.4180 c3        1 MOL     -0.062603
     64 C21        -4.9520   -4.1870    1.8720 c         1 MOL      0.475400
     65 O12        -4.8480   -4.7860    2.9260 o         1 MOL     -0.588759
     66 H26        -6.4250   -1.9400    0.3340 hn        1 MOL      0.245215
     67 H27        -6.8940   -4.7980    1.1500 h1        1 MOL      0.093170
     68 H28        -6.9690   -3.4890    2.2170 h1        1 MOL      0.093170
     69 N8         -3.8960   -3.9540    1.1230 n         1 MOL     -0.101851
     70 C22        -2.5120   -4.3720    1.4430 c3        1 MOL     -0.038846
     71 C23        -1.5480   -3.2080    1.6130 c         1 MOL      0.527052
     72 O13        -1.6740   -2.1750    0.9310 o         1 MOL     -0.608469
     73 C24        -1.9240   -5.4660    0.5780 c3        1 MOL      0.405541
     74 C25        -2.5570   -6.7830    0.8580 c3        1 MOL     -0.413233
     75 O14        -2.1840   -5.2740   -0.7980 oh        1 MOL     -0.571219
     76 H29        -3.9800   -3.4450    0.2490 hn        1 MOL      0.070107
     77 H30        -2.5720   -4.7850    2.4430 h1        1 MOL      0.060519
     78 H31        -0.8610   -5.6110    0.7630 h1        1 MOL      0.008797
     79 H32        -1.8810   -4.3900   -1.0260 ho        1 MOL      0.340805
     80 H33        -1.9670   -7.5250    0.3230 hc        1 MOL      0.102822
     81 H34        -2.6010   -7.1020    1.8920 hc        1 MOL      0.102822
     82 H35        -3.5760   -6.8700    0.4800 hc        1 MOL      0.102822
     83 N9         -0.4890   -3.3850    2.4730 n         1 MOL     -0.594051
     84 C26         0.7190   -2.5870    2.4030 c3        1 MOL      0.034619
     85 C27         1.5740   -3.0430    1.1480 c         1 MOL      0.748244
     86 O15         1.7580   -4.2500    0.9330 o         1 MOL     -0.617902
     87 C28         1.3800   -2.6120    3.8130 c3        1 MOL     -0.076702
     88 C29         0.6470   -1.6150    4.8100 c3        1 MOL      0.131848
     89 C30         2.8510   -2.3180    3.7610 c3        1 MOL     -0.055474
     90 C31         1.1520   -1.5430    6.2360 c3        1 MOL     -0.217300
     91 H36        -0.4020   -4.2960    2.9130 hn        1 MOL      0.296526
     92 H37         0.5250   -1.5220    2.2410 h1        1 MOL      0.092992
     93 H38         1.3100   -3.6150    4.2180 hc        1 MOL      0.039112
     94 H39        -0.4250   -1.7770    4.7520 hc        1 MOL     -0.004094
     95 H40         0.7590   -0.6130    4.3880 hc        1 MOL     -0.004094
     96 H41         3.0150   -1.3280    3.3350 hc        1 MOL      0.007141
     97 H42         3.2250   -2.2410    4.7820 hc        1 MOL      0.007141
     98 H43         3.4650   -3.0770    3.2680 hc        1 MOL      0.007141
     99 H44         2.0080   -0.8700    6.2180 hc        1 MOL      0.050768
    100 H45         0.3480   -1.1840    6.8830 hc        1 MOL      0.050768
    101 H46         1.3940   -2.5380    6.6130 hc        1 MOL      0.050768
    102 N10         2.0640   -2.0360    0.3930 n         1 MOL     -0.476164
    103 C32         2.8660   -2.1090   -0.8220 c3        1 MOL      0.054089
    104 C33         4.3730   -1.8550   -0.4570 c         1 MOL      0.411154
    105 O16         4.6230   -1.0320    0.4930 o         1 MOL     -0.429283
    106 C34         2.2340   -1.1690   -1.8470 c3        1 MOL     -0.132337
    107 C35         0.6860   -1.4200   -2.2080 c         1 MOL      0.598051
    108 O17        -0.2230   -0.9970   -1.3720 o         1 MOL     -0.612087
    109 O18         0.4270   -2.0340   -3.2920 o         1 MOL     -0.612087
    110 H47         1.6350   -1.1680    0.6450 hn        1 MOL      0.255475
    111 H48         2.7620   -3.1020   -1.2740 h1        1 MOL      0.064867
    112 H49         2.8610   -1.2930   -2.7360 hc        1 MOL      0.062758
    113 H50         2.3720   -0.1770   -1.4340 hc        1 MOL      0.062758
    114 N11         5.3950   -2.1600   -1.2790 n         1 MOL     -0.509268
    115 C36         6.8110   -1.6780   -0.9890 c3        1 MOL      0.274034
    116 C37         6.9110   -0.1410   -1.0690 c         1 MOL      0.374541
    117 O19         7.5250    0.4040   -0.1680 o         1 MOL     -0.504268
    118 C38         7.7420   -2.4480   -2.0070 c3        1 MOL     -0.418393
    119 C39         9.1240   -1.7880   -1.9470 ca        1 MOL      0.211159
    120 C40        10.0220   -2.2030   -0.9990 ca        1 MOL     -0.187903
    121 C41         9.5660   -0.9340   -2.9400 ca        1 MOL     -0.187903
    122 C42        11.2720   -1.5830   -0.8600 ca        1 MOL     -0.135140
    123 C43        10.8690   -0.3890   -2.9920 ca        1 MOL     -0.135140
    124 C44        11.7250   -0.6880   -1.8880 ca        1 MOL     -0.095129
    125 H51         5.1970   -2.7610   -2.0710 hn        1 MOL      0.304305
    126 H52         7.1010   -2.0170    0.0060 h1        1 MOL      0.091181
    127 H53         7.3920   -2.5040   -3.0280 hc        1 MOL      0.125715
    128 H54         7.8640   -3.4740   -1.6570 hc        1 MOL      0.125715
    129 H55         9.6870   -2.9810   -0.3340 ha        1 MOL      0.114343
    130 H56         8.8220   -0.7000   -3.6890 ha        1 MOL      0.114343
    131 H57        11.8760   -1.8450   -0.0030 ha        1 MOL      0.128093
    132 H58        11.0100    0.3650   -3.7420 ha        1 MOL      0.128093
    133 H59        12.7010   -0.2240   -1.8400 ha        1 MOL      0.099413
    134 N12         6.1870    0.6300   -1.8840 n         1 MOL     -0.076360
    135 C45         6.0390    2.1060   -1.7710 c3        1 MOL      0.039666
    136 C46         5.4900    2.6080   -0.4370 c         1 MOL      0.289941
    137 O20         5.9430    3.6860   -0.0670 o         1 MOL     -0.517877
    138 C47         5.1290    2.5010   -2.9340 c3        1 MOL     -0.051166
    139 C48         5.3730    1.4360   -4.0000 c3        1 MOL     -0.065093
    140 C49         5.5500    0.2000   -3.1340 c3        1 MOL     -0.038512
    141 H60         6.9990    2.5800   -1.9400 h1        1 MOL      0.066610
    142 H61         4.0920    2.4080   -2.6050 hc        1 MOL      0.055846
    143 H62         5.3330    3.5080   -3.3020 hc        1 MOL      0.055846
    144 H63         4.4920    1.3320   -4.6410 hc        1 MOL      0.035798
    145 H64         6.2570    1.6190   -4.6180 hc        1 MOL      0.035798
    146 H65         4.5210   -0.1170   -2.9350 h1        1 MOL      0.037007
    147 H66         6.0610   -0.6150   -3.6570 h1        1 MOL      0.037007
    148 N13         4.6760    1.8180    0.3030 n         1 MOL      0.017686
    149 C50         4.0890    2.3430    1.5640 c3        1 MOL     -0.169025
    150 C51         4.7530    1.7370    2.8110 c         1 MOL      0.474928
    151 O21         4.7410    2.3910    3.8290 o         1 MOL     -0.564849
    152 C52         2.5790    1.9960    1.5870 c3        1 MOL      0.110149
    153 C53         1.6780    2.5790    0.5420 c3        1 MOL     -0.105316
    154 C54         0.3080    1.7530    0.5020 c         1 MOL      0.532529
    155 O22         0.1490    0.7590    1.2030 o         1 MOL     -0.649972
    156 O23        -0.6010    2.1460   -0.2920 o         1 MOL     -0.649972
    157 H67         4.5730    0.9110   -0.1400 hn        1 MOL      0.034814
    158 H68         4.1870    3.4280    1.5630 h1        1 MOL      0.129957
    159 H69         2.1790    2.1510    2.5880 hc        1 MOL      0.010400
    160 H70         2.5620    0.9190    1.4330 hc        1 MOL      0.010400
    161 H71         2.1250    2.4760   -0.4500 hc        1 MOL      0.039459
    162 H72         1.5390    3.6300    0.7900 hc        1 MOL      0.039459
    163 N14         5.3540    0.5460    2.7180 n         1 MOL     -0.116016
    164 C55         6.3880   -0.0020    3.5610 c3        1 MOL     -0.077394
    165 H73         6.7540    0.7720    4.2350 h1        1 MOL      0.040091
    166 H74         5.9810   -0.8280    4.1430 h1        1 MOL      0.040091
    167 H75         7.2090   -0.3630    2.9420 h1        1 MOL      0.040091
    168 H76         5.2700    0.0210    1.8590 hn        1 MOL      0.135609
    169 Ca1        -2.1400    0.0790   -0.0940 Ca        1 MOL      1.532098
    170 O24        -1.9660    0.0830    2.7240 oh        1 MOL     -0.674218
    171 H77        -2.0590    0.0010    3.6760 ho        1 MOL      0.336651
    172 H78        -1.0400   -0.0910    2.5550 ho        1 MOL      0.336651
    173 O25        -4.4960   -0.5830    0.9180 oh        1 MOL     -0.674218
    174 H79        -4.9120    0.2750    0.9440 ho        1 MOL      0.336651
    175 H80        -4.4380   -0.8530    1.8280 ho        1 MOL      0.336651
@<TRIPOS>BOND
     1    1    2 1   
     2    1    4 1   
     3    1    5 1   
     4    1    6 1   
     5    2    3 2   
     6    2    7 1   
     7    7    8 1   
     8    7   15 1   
     9    8    9 1   
    10    8   11 1   
    11    8   16 1   
    12    9   10 2   
    13    9   19 1   
    14   11   12 1   
    15   11   17 1   
    16   11   18 1   
    17   12   13 1   
    18   12   14 1   
    19   19   20 1   
    20   19   24 1   
    21   20   21 1   
    22   20   23 1   
    23   20   25 1   
    24   21   22 2   
    25   21   29 1   
    26   23   26 1   
    27   23   27 1   
    28   23   28 1   
    29   29   30 1   
    30   29   37 1   
    31   30   31 1   
    32   30   33 1   
    33   30   38 1   
    34   31   32 2   
    35   31   41 1   
    36   33   34 1   
    37   33   39 1   
    38   33   40 1   
    39   34   35 1   
    40   34   36 1   
    41   41   42 1   
    42   41   45 1   
    43   42   43 1   
    44   42   46 1   
    45   42   47 1   
    46   43   44 2   
    47   43   48 1   
    48   48   49 1   
    49   48   56 1   
    50   49   50 1   
    51   49   52 1   
    52   49   57 1   
    53   50   51 2   
    54   50   62 1   
    55   52   53 1   
    56   52   58 1   
    57   52   59 1   
    58   53   54 1   
    59   53   55 2   
    60   54   60 1   
    61   54   61 1   
    62   62   63 1   
    63   62   66 1   
    64   63   64 1   
    65   63   67 1   
    66   63   68 1   
    67   64   65 2   
    68   64   69 1   
    69   69   70 1   
    70   69   76 1   
    71   70   71 1   
    72   70   73 1   
    73   70   77 1   
    74   71   72 2   
    75   71   83 1   
    76   73   74 1   
    77   73   75 1   
    78   73   78 1   
    79   74   80 1   
    80   74   81 1   
    81   74   82 1   
    82   75   79 1   
    83   83   84 1   
    84   83   91 1   
    85   84   85 1   
    86   84   87 1   
    87   84   92 1   
    88   85   86 2   
    89   85  102 1   
    90   87   88 1   
    91   87   89 1   
    92   87   93 1   
    93   88   90 1   
    94   88   94 1   
    95   88   95 1   
    96   89   96 1   
    97   89   97 1   
    98   89   98 1   
    99   90   99 1   
   100   90  100 1   
   101   90  101 1   
   102  102  103 1   
   103  102  110 1   
   104  103  104 1   
   105  103  106 1   
   106  103  111 1   
   107  104  105 2   
   108  104  114 1   
   109  106  107 1   
   110  106  112 1   
   111  106  113 1   
   112  107  108 1   
   113  107  109 1   
   114  114  115 1   
   115  114  125 1   
   116  115  116 1   
   117  115  118 1   
   118  115  126 1   
   119  116  117 2   
   120  116  134 1   
   121  118  119 1   
   122  118  127 1   
   123  118  128 1   
   124  119  120 ar  
   125  119  121 ar  
   126  120  122 ar  
   127  120  129 1   
   128  121  123 ar  
   129  121  130 1   
   130  122  124 ar  
   131  122  131 1   
   132  123  124 ar  
   133  123  132 1   
   134  124  133 1   
   135  134  135 1   
   136  134  140 1   
   137  135  136 1   
   138  135  138 1   
   139  135  141 1   
   140  136  137 2   
   141  136  148 1   
   142  138  139 1   
   143  138  142 1   
   144  138  143 1   
   145  139  140 1   
   146  139  144 1   
   147  139  145 1   
   148  140  146 1   
   149  140  147 1   
   150  148  149 1   
   151  148  157 1   
   152  149  150 1   
   153  149  152 1   
   154  149  158 1   
   155  150  151 2   
   156  150  163 1   
   157  152  153 1   
   158  152  159 1   
   159  152  160 1   
   160  153  154 1   
   161  153  161 1   
   162  153  162 1   
   163  154  155 1   
   164  154  156 1   
   165  163  164 1   
   166  163  168 1   
   167  164  165 1   
   168  164  166 1   
   169  164  167 1   
   170  170  171 1   
   171  170  172 1   
   172  173  174 1   
   173  173  175 1   
@<TRIPOS>SUBSTRUCTURE
     1 MOL         1 TEMP              0 ****  ****    0 ROOT
