@<TRIPOS>MOLECULE
MOL
  175   173     1     0     0
SMALL
resp


@<TRIPOS>ATOM
      1 C1          0.7330    3.8220    5.5730 c3        1 MOL     -0.406306
      2 C2          0.1110    3.6850    4.1740 c         1 MOL      0.737981
      3 O1          0.8410    3.5940    3.2210 o         1 MOL     -0.540550
      4 H1          0.5780    2.8990    6.1320 hc        1 MOL      0.096329
      5 H2          1.8020    4.0130    5.4790 hc        1 MOL      0.096329
      6 H3          0.2610    4.6500    6.1020 hc        1 MOL      0.096329
      7 N1         -1.2090    3.6430    4.0850 n         1 MOL     -0.676277
      8 C3         -1.8410    3.4970    2.7990 c3        1 MOL      0.099309
      9 C4         -1.8340    4.7410    1.9310 c         1 MOL      0.629671
     10 O2         -2.0680    5.8720    2.3160 o         1 MOL     -0.586791
     11 C5         -3.2770    3.0690    2.9850 c3        1 MOL     -0.156267
     12 C6         -4.0060    2.6220    1.7190 c         1 MOL      0.598419
     13 O3         -5.2400    2.7270    1.8410 o         1 MOL     -0.631932
     14 O4         -3.4580    2.1350    0.6690 o         1 MOL     -0.631932
     15 H4         -1.7550    3.7620    4.9250 hn        1 MOL      0.343199
     16 H5         -1.3460    2.6660    2.2910 h1        1 MOL      0.039798
     17 H6         -3.9040    3.7800    3.5120 hc        1 MOL      0.039977
     18 H7         -3.2400    2.2370    3.6870 hc        1 MOL      0.039977
     19 N2         -1.6120    4.4810    0.5830 n         1 MOL     -0.535830
     20 C7         -1.7750    5.4520   -0.5600 c3        1 MOL      0.144369
     21 C8         -2.7370    5.0180   -1.6920 c         1 MOL      0.589918
     22 O5         -2.8150    5.7770   -2.6280 o         1 MOL     -0.565785
     23 C9         -0.3840    5.8060   -1.0880 c3        1 MOL     -0.112057
     24 H8         -1.4340    3.5220    0.3530 hn        1 MOL      0.418347
     25 H9         -2.2040    6.4070   -0.2470 h1        1 MOL      0.042674
     26 H10         0.2440    6.1110   -0.2570 hc        1 MOL      0.020803
     27 H11         0.1340    4.8990   -1.3970 hc        1 MOL      0.020803
     28 H12        -0.4190    6.5830   -1.8530 hc        1 MOL      0.020803
     29 N3         -3.5540    3.9080   -1.5850 n         1 MOL     -0.597744
     30 C10        -4.3790    3.5770   -2.7520 c3        1 MOL      0.237096
     31 C11        -5.6690    2.8350   -2.3800 c         1 MOL      0.374032
     32 O6         -6.6310    2.9480   -3.0760 o         1 MOL     -0.561541
     33 C12        -3.7080    2.7230   -3.7770 c3        1 MOL     -0.215448
     34 C13        -3.0180    1.4880   -3.2620 c         1 MOL      0.740516
     35 O7         -1.9650    1.1910   -3.8550 o         1 MOL     -0.684191
     36 O8         -3.3390    0.9110   -2.1650 o         1 MOL     -0.684191
     37 H13        -3.4650    3.2330   -0.8420 hn        1 MOL      0.308824
     38 H14        -4.8130    4.4580   -3.2150 h1        1 MOL      0.032633
     39 H15        -2.8660    3.2850   -4.1690 hc        1 MOL      0.040641
     40 H16        -4.2750    2.4810   -4.6750 hc        1 MOL      0.040641
     41 N4         -5.7530    2.1120   -1.2850 n         1 MOL      0.009633
     42 C14        -6.9670    1.4650   -0.8180 c3        1 MOL     -0.057791
     43 C15        -7.2050    0.1300   -1.4260 c         1 MOL      0.429262
     44 O9         -8.3330   -0.2060   -1.7880 o         1 MOL     -0.598247
     45 H17        -4.9860    2.1130   -0.6290 hn        1 MOL     -0.012952
     46 H18        -7.8020    2.1500   -0.9600 h1        1 MOL      0.053247
     47 H19        -6.9330    1.2440    0.2480 h1        1 MOL      0.053247
     48 N5         -6.1310   -0.5900   -1.6810 n         1 MOL     -0.005448
     49 C16        -6.0560   -1.9630   -2.2870 c3        1 MOL     -0.156854
     50 C17        -6.2610   -3.1240   -1.2350 c         1 MOL      0.456484
     51 O10        -6.1720   -4.3110   -1.6110 o         1 MOL     -0.532831
     52 C18        -4.9050   -2.1490   -3.2690 c3        1 MOL      0.044385
     53 C19        -3.6290   -2.4030   -2.5120 c         1 MOL      0.434167
     54 N6         -2.6010   -3.0430   -3.0420 n         1 MOL     -0.552762
     55 O11        -3.4680   -1.9810   -1.3270 o         1 MOL     -0.581597
     56 H20        -5.2790   -0.1210   -1.4230 hn        1 MOL     -0.057536
     57 H21        -6.9440   -2.0830   -2.9120 h1        1 MOL      0.116033
     58 H22        -4.7230   -1.2650   -3.8900 hc        1 MOL      0.039770
     59 H23        -5.1240   -2.9230   -4.0010 hc        1 MOL      0.039770
     60 H24        -2.6260   -3.3250   -4.0140 hn        1 MOL      0.307770
     61 H25        -1.6790   -2.8910   -2.6690 hn        1 MOL      0.307770
     62 N7         -6.3290   -2.8020    0.0530 n         1 MOL     -0.310485
     63 C20        -6.4580   -3.7980    1.1940 c3        1 MOL     -0.234729
     64 C21        -5.1250   -4.4020    1.6780 c         1 MOL      0.595585
     65 O12        -5.1360   -5.1440    2.5900 o         1 MOL     -0.588528
     66 H26        -6.1750   -1.8230    0.2670 hn        1 MOL      0.227393
     67 H27        -7.1050   -4.5190    0.6900 h1        1 MOL      0.126429
     68 H28        -7.0500   -3.2910    1.9480 h1        1 MOL      0.126429
     69 N8         -3.9940   -3.9750    1.1540 n         1 MOL     -0.229186
     70 C22        -2.7410   -4.4360    1.6300 c3        1 MOL     -0.167996
     71 C23        -1.6760   -3.3160    1.6010 c         1 MOL      0.487696
     72 O13        -1.7400   -2.4550    0.7360 o         1 MOL     -0.578135
     73 C24        -2.1710   -5.4440    0.6250 c3        1 MOL      0.579300
     74 C25        -2.7600   -6.8140    0.9670 c3        1 MOL     -0.574682
     75 O14        -2.4670   -5.1920   -0.7520 oh        1 MOL     -0.622908
     76 H29        -4.0050   -3.3500    0.3570 hn        1 MOL      0.261069
     77 H30        -2.8130   -4.8850    2.6230 h1        1 MOL      0.115374
     78 H31        -1.0800   -5.4910    0.7040 h1        1 MOL     -0.051904
     79 H32        -2.1810   -4.2870   -0.9180 ho        1 MOL      0.375811
     80 H33        -3.8320   -6.8960    0.7990 hc        1 MOL      0.140394
     81 H34        -2.1850   -7.4100    0.2530 hc        1 MOL      0.140394
     82 H35        -2.4990   -7.1430    1.9710 hc        1 MOL      0.140394
     83 N9         -0.6330   -3.4850    2.4540 n         1 MOL     -0.477812
     84 C26         0.6440   -2.7320    2.2350 c3        1 MOL      0.008354
     85 C27         1.3950   -3.1850    0.9580 c         1 MOL      0.614316
     86 O15         1.6790   -4.4030    0.7500 o         1 MOL     -0.596482
     87 C28         1.4280   -2.7410    3.5840 c3        1 MOL      0.243104
     88 C29         1.0340   -1.5470    4.5980 c3        1 MOL      0.205080
     89 C30         2.9170   -2.6100    3.4750 c3        1 MOL     -0.416608
     90 C31         1.2640   -1.9180    6.0750 c3        1 MOL     -0.252227
     91 H36        -0.5160   -4.2570    3.0790 hn        1 MOL      0.276388
     92 H37         0.3360   -1.6920    2.1730 h1        1 MOL     -0.097417
     93 H38         1.1590   -3.6850    4.0580 hc        1 MOL     -0.034675
     94 H39        -0.0340   -1.3870    4.4120 hc        1 MOL     -0.066940
     95 H40         1.5870   -0.6500    4.3130 hc        1 MOL     -0.066940
     96 H41         3.2150   -3.3090    2.6880 hc        1 MOL      0.087037
     97 H42         3.0620   -1.6030    3.0880 hc        1 MOL      0.087037
     98 H43         3.4120   -2.8250    4.4230 hc        1 MOL      0.087037
     99 H44         2.3410   -2.0400    6.1570 hc        1 MOL      0.055225
    100 H45         0.9320   -1.0810    6.6850 hc        1 MOL      0.055225
    101 H46         0.8030   -2.8290    6.4580 hc        1 MOL      0.055225
    102 N10         1.8230   -2.2090    0.2110 n         1 MOL     -0.184883
    103 C32         2.6260   -2.3140   -0.9650 c3        1 MOL     -0.092602
    104 C33         4.0090   -1.8640   -0.7090 c         1 MOL      0.629663
    105 O16         4.3060   -1.2340    0.3190 o         1 MOL     -0.479473
    106 C34         2.0090   -1.3330   -1.9520 c3        1 MOL     -0.291642
    107 C35         0.4950   -1.4470   -2.1490 c         1 MOL      0.800138
    108 O17        -0.2420   -0.5450   -1.7010 o         1 MOL     -0.682382
    109 O18         0.0390   -2.3770   -2.7990 o         1 MOL     -0.682382
    110 H47         1.7430   -1.2920    0.6380 hn        1 MOL      0.092010
    111 H48         2.6040   -3.3250   -1.3810 h1        1 MOL      0.101640
    112 H49         2.5250   -1.5010   -2.8980 hc        1 MOL      0.086394
    113 H50         2.1710   -0.3040   -1.6440 hc        1 MOL      0.086394
    114 N11         4.8440   -2.0450   -1.7490 n         1 MOL     -0.685703
    115 C36         6.2420   -1.6370   -1.5720 c3        1 MOL      0.216489
    116 C37         6.4580   -0.1440   -1.3140 c         1 MOL      0.221970
    117 O19         7.3580    0.0930   -0.4840 o         1 MOL     -0.428603
    118 C38         7.0970   -2.1060   -2.7270 c3        1 MOL     -0.068906
    119 C39         8.5570   -1.9080   -2.4400 ca        1 MOL     -0.011147
    120 C40         9.2190   -2.7170   -1.4710 ca        1 MOL     -0.127775
    121 C41         9.2070   -0.8750   -3.0610 ca        1 MOL     -0.127775
    122 C42        10.5480   -2.4060   -1.1320 ca        1 MOL     -0.093614
    123 C43        10.5820   -0.6450   -2.8120 ca        1 MOL     -0.093614
    124 C44        11.2340   -1.3900   -1.7990 ca        1 MOL     -0.149391
    125 H51         4.5890   -2.4930   -2.6210 hn        1 MOL      0.371291
    126 H52         6.6080   -2.1830   -0.7030 h1        1 MOL      0.100079
    127 H53         6.7530   -1.6830   -3.6710 hc        1 MOL      0.043170
    128 H54         6.8490   -3.1470   -2.9610 hc        1 MOL      0.043170
    129 H55         8.7500   -3.5900   -1.0630 ha        1 MOL      0.109191
    130 H56         8.7570   -0.2150   -3.7770 ha        1 MOL      0.109191
    131 H57        11.0870   -2.9270   -0.3570 ha        1 MOL      0.106263
    132 H58        11.0550    0.1550   -3.3530 ha        1 MOL      0.106263
    133 H59        12.2350   -1.1890   -1.4440 ha        1 MOL      0.113258
    134 N12         5.8580    0.8920   -1.9690 n         1 MOL      0.032493
    135 C45         6.0100    2.2440   -1.5870 c3        1 MOL     -0.019450
    136 C46         5.4360    2.6570   -0.2990 c         1 MOL      0.315867
    137 O20         5.7590    3.6280    0.3860 o         1 MOL     -0.510032
    138 C47         5.5010    3.1460   -2.6900 c3        1 MOL     -0.080617
    139 C48         4.4440    2.1800   -3.3420 c3        1 MOL     -0.043245
    140 C49         4.9320    0.8260   -3.0380 c3        1 MOL     -0.009460
    141 H60         7.0760    2.4440   -1.4830 h1        1 MOL      0.066032
    142 H61         5.0570    4.0920   -2.4020 hc        1 MOL      0.050986
    143 H62         6.2880    3.3100   -3.4260 hc        1 MOL      0.050986
    144 H63         3.5780    2.3690   -2.7180 hc        1 MOL      0.043887
    145 H64         4.4170    2.3260   -4.4240 hc        1 MOL      0.043887
    146 H65         4.0710    0.1900   -2.8130 h1        1 MOL      0.016576
    147 H66         5.5130    0.5270   -3.9090 h1        1 MOL      0.016576
    148 N13         4.5930    1.7480    0.2870 n         1 MOL     -0.020695
    149 C50         3.9900    2.0310    1.6420 c3        1 MOL     -0.245595
    150 C51         4.8690    1.4290    2.7280 c         1 MOL      0.495629
    151 O21         5.0500    1.9150    3.9060 o         1 MOL     -0.563462
    152 C52         2.5670    1.6360    1.5630 c3        1 MOL     -0.079286
    153 C53         1.6780    2.3650    0.5340 c3        1 MOL     -0.045781
    154 C54         0.2940    1.6920    0.5280 c         1 MOL      0.149939
    155 O22        -0.0710    0.7750    1.3550 o         1 MOL     -0.540354
    156 O23        -0.4740    2.0050   -0.4090 o         1 MOL     -0.540354
    157 H67         4.3160    0.9380   -0.2500 hn        1 MOL      0.124927
    158 H68         3.9330    3.1200    1.7270 h1        1 MOL      0.146676
    159 H69         2.1430    1.6590    2.5710 hc        1 MOL      0.134924
    160 H70         2.6920    0.5770    1.3450 hc        1 MOL      0.134924
    161 H71         2.1060    2.1870   -0.4560 hc        1 MOL      0.097908
    162 H72         1.7140    3.4410    0.6870 hc        1 MOL      0.097908
    163 N14         5.5680    0.3010    2.4280 n         1 MOL     -0.051433
    164 C55         6.6980   -0.0880    3.2510 c3        1 MOL     -0.218932
    165 H73         6.3660   -0.7950    4.0110 h1        1 MOL      0.080248
    166 H74         7.4580   -0.5570    2.6270 h1        1 MOL      0.080248
    167 H75         7.1170    0.7940    3.7330 h1        1 MOL      0.080248
    168 H76         5.6170    0.0520    1.4530 hn        1 MOL      0.074694
    169 Ca1        -2.1470   -0.0770   -0.1120 Ca        1 MOL      1.725919
    170 O24        -4.7730   -0.3490    1.1060 oh        1 MOL     -0.763534
    171 H77        -5.2460   -0.5870    1.9070 ho        1 MOL      0.394217
    172 H78        -5.0230    0.5540    0.9450 ho        1 MOL      0.394217
    173 O25        -2.0500   -0.0770    2.7830 oh        1 MOL     -0.763534
    174 H79        -2.0910    0.0300    3.7380 ho        1 MOL      0.394217
    175 H80        -1.1460    0.1380    2.5570 ho        1 MOL      0.394217
@<TRIPOS>BOND
     1    1    2 1   
     2    1    4 1   
     3    1    5 1   
     4    1    6 1   
     5    2    3 2   
     6    2    7 1   
     7    7    8 1   
     8    7   15 1   
     9    8    9 1   
    10    8   11 1   
    11    8   16 1   
    12    9   10 2   
    13    9   19 1   
    14   11   12 1   
    15   11   17 1   
    16   11   18 1   
    17   12   13 1   
    18   12   14 1   
    19   19   20 1   
    20   19   24 1   
    21   20   21 1   
    22   20   23 1   
    23   20   25 1   
    24   21   22 2   
    25   21   29 1   
    26   23   26 1   
    27   23   27 1   
    28   23   28 1   
    29   29   30 1   
    30   29   37 1   
    31   30   31 1   
    32   30   33 1   
    33   30   38 1   
    34   31   32 2   
    35   31   41 1   
    36   33   34 1   
    37   33   39 1   
    38   33   40 1   
    39   34   35 1   
    40   34   36 1   
    41   41   42 1   
    42   41   45 1   
    43   42   43 1   
    44   42   46 1   
    45   42   47 1   
    46   43   44 2   
    47   43   48 1   
    48   48   49 1   
    49   48   56 1   
    50   49   50 1   
    51   49   52 1   
    52   49   57 1   
    53   50   51 2   
    54   50   62 1   
    55   52   53 1   
    56   52   58 1   
    57   52   59 1   
    58   53   54 1   
    59   53   55 2   
    60   54   60 1   
    61   54   61 1   
    62   62   63 1   
    63   62   66 1   
    64   63   64 1   
    65   63   67 1   
    66   63   68 1   
    67   64   65 2   
    68   64   69 1   
    69   69   70 1   
    70   69   76 1   
    71   70   71 1   
    72   70   73 1   
    73   70   77 1   
    74   71   72 2   
    75   71   83 1   
    76   73   74 1   
    77   73   75 1   
    78   73   78 1   
    79   74   80 1   
    80   74   81 1   
    81   74   82 1   
    82   75   79 1   
    83   83   84 1   
    84   83   91 1   
    85   84   85 1   
    86   84   87 1   
    87   84   92 1   
    88   85   86 2   
    89   85  102 1   
    90   87   88 1   
    91   87   89 1   
    92   87   93 1   
    93   88   90 1   
    94   88   94 1   
    95   88   95 1   
    96   89   96 1   
    97   89   97 1   
    98   89   98 1   
    99   90   99 1   
   100   90  100 1   
   101   90  101 1   
   102  102  103 1   
   103  102  110 1   
   104  103  104 1   
   105  103  106 1   
   106  103  111 1   
   107  104  105 2   
   108  104  114 1   
   109  106  107 1   
   110  106  112 1   
   111  106  113 1   
   112  107  108 1   
   113  107  109 1   
   114  114  115 1   
   115  114  125 1   
   116  115  116 1   
   117  115  118 1   
   118  115  126 1   
   119  116  117 2   
   120  116  134 1   
   121  118  119 1   
   122  118  127 1   
   123  118  128 1   
   124  119  120 ar  
   125  119  121 ar  
   126  120  122 ar  
   127  120  129 1   
   128  121  123 ar  
   129  121  130 1   
   130  122  124 ar  
   131  122  131 1   
   132  123  124 ar  
   133  123  132 1   
   134  124  133 1   
   135  134  135 1   
   136  134  140 1   
   137  135  136 1   
   138  135  138 1   
   139  135  141 1   
   140  136  137 2   
   141  136  148 1   
   142  138  139 1   
   143  138  142 1   
   144  138  143 1   
   145  139  140 1   
   146  139  144 1   
   147  139  145 1   
   148  140  146 1   
   149  140  147 1   
   150  148  149 1   
   151  148  157 1   
   152  149  150 1   
   153  149  152 1   
   154  149  158 1   
   155  150  151 2   
   156  150  163 1   
   157  152  153 1   
   158  152  159 1   
   159  152  160 1   
   160  153  154 1   
   161  153  161 1   
   162  153  162 1   
   163  154  155 1   
   164  154  156 1   
   165  163  164 1   
   166  163  168 1   
   167  164  165 1   
   168  164  166 1   
   169  164  167 1   
   170  170  171 1   
   171  170  172 1   
   172  173  174 1   
   173  173  175 1   
@<TRIPOS>SUBSTRUCTURE
     1 MOL         1 TEMP              0 ****  ****    0 ROOT
