@<TRIPOS>MOLECULE
MOL
  179   176     1     0     0
SMALL
resp


@<TRIPOS>ATOM
      1 C1         -1.1880   -2.5030    6.3730 c3        1 MOL     -0.315878
      2 C2         -0.9590   -2.1710    4.8520 c         1 MOL      0.747411
      3 O1         -1.9120   -2.1370    4.0470 o         1 MOL     -0.624755
      4 H1         -0.5420   -1.8730    6.9830 hc        1 MOL      0.084856
      5 H2         -2.2300   -2.3160    6.6340 hc        1 MOL      0.084856
      6 H3         -0.9500   -3.5510    6.5560 hc        1 MOL      0.084856
      7 N1          0.2480   -2.0090    4.4140 n         1 MOL     -0.624785
      8 C3          0.7810   -2.0050    3.0520 c3        1 MOL      0.006361
      9 C4          0.9570   -3.4030    2.4200 c         1 MOL      0.677862
     10 O2          1.8630   -4.0860    2.9020 o         1 MOL     -0.560307
     11 C5          2.0910   -1.2080    3.0950 c3        1 MOL     -0.156788
     12 C6          2.8020   -0.9850    1.7910 c         1 MOL      0.557732
     13 O3          2.3440   -1.5460    0.7390 o         1 MOL     -0.566133
     14 O4          3.9180   -0.5030    1.8250 o         1 MOL     -0.566133
     15 H4          0.9780   -1.9580    5.1160 hn        1 MOL      0.323714
     16 H5          0.0400   -1.4940    2.4380 h1        1 MOL      0.004796
     17 H6          2.7940   -1.6420    3.7960 hc        1 MOL      0.069406
     18 H7          1.9830   -0.2000    3.4970 hc        1 MOL      0.069406
     19 N2          0.2020   -3.7190    1.4160 n         1 MOL     -0.462793
     20 C7          0.2610   -5.0290    0.7090 c3        1 MOL      0.065405
     21 C8          1.6510   -5.4110    0.1850 c         1 MOL      0.361361
     22 O5          2.0780   -6.5110    0.5170 o         1 MOL     -0.507529
     23 C9         -0.8580   -4.9300   -0.3570 c3        1 MOL     -0.024091
     24 C10        -0.8830   -6.0400   -1.4680 c3        1 MOL     -0.193767
     25 C11        -2.1630   -6.2410   -2.2040 c3        1 MOL      0.111568
     26 C12        -1.9920   -6.9940   -3.5230 c3        1 MOL     -0.053746
     27 N3         -3.1240   -6.7820   -4.5000 n4        1 MOL     -0.327312
     28 H8         -0.3670   -2.9590    1.0670 hn        1 MOL      0.347679
     29 H9          0.0590   -5.8230    1.4340 h1        1 MOL      0.092816
     30 H10        -0.7040   -4.0780   -1.0250 hc        1 MOL      0.052656
     31 H11        -1.8120   -4.9260    0.1660 hc        1 MOL      0.052656
     32 H12        -0.6050   -7.0270   -1.0860 hc        1 MOL      0.049221
     33 H13        -0.1180   -5.9470   -2.2350 hc        1 MOL      0.049221
     34 H14        -2.6920   -5.3270   -2.5030 hc        1 MOL      0.016775
     35 H15        -2.9480   -6.5770   -1.5240 hc        1 MOL      0.016775
     36 H16        -1.8410   -8.0670   -3.4050 hx        1 MOL      0.110239
     37 H17        -1.0990   -6.5720   -3.9680 hx        1 MOL      0.110239
     38 H18        -2.9360   -7.3460   -5.3120 hn        1 MOL      0.321623
     39 H19        -3.9730   -7.1570   -4.1040 hn        1 MOL      0.321623
     40 H20        -3.3100   -5.8160   -4.7330 hn        1 MOL      0.321623
     41 N4          2.3160   -4.5370   -0.5630 n         1 MOL     -0.105323
     42 C13         3.7030   -4.7710   -0.9940 c3        1 MOL     -0.119022
     43 C14         4.9260   -4.1240   -0.2280 c         1 MOL      0.544443
     44 O6          6.0600   -4.3580   -0.5740 o         1 MOL     -0.529199
     45 C15         3.8710   -4.4810   -2.5170 c3        1 MOL     -0.056591
     46 C16         3.6780   -3.0130   -2.9930 c         1 MOL      0.646072
     47 O7          3.2720   -2.1410   -2.1830 o         1 MOL     -0.702168
     48 O8          4.0500   -2.7160   -4.1980 o         1 MOL     -0.702168
     49 H21         2.0620   -3.5630   -0.5460 hn        1 MOL      0.056639
     50 H22         3.9660   -5.8260   -0.8800 h1        1 MOL      0.098637
     51 H23         3.0910   -5.0090   -3.0480 hc        1 MOL      0.018259
     52 H24         4.8630   -4.7760   -2.8500 hc        1 MOL      0.018259
     53 N5          4.6280   -3.5190    0.9110 n         1 MOL     -0.276962
     54 C17         5.7630   -2.9160    1.7670 c3        1 MOL     -0.150056
     55 C18         6.5210   -1.7600    1.0050 c         1 MOL      0.511207
     56 O9          7.6860   -1.4210    1.3590 o         1 MOL     -0.556018
     57 H25         3.6520   -3.4200    1.1540 hn        1 MOL      0.235792
     58 H26         6.4790   -3.6950    2.0270 h1        1 MOL      0.105252
     59 H27         5.3150   -2.4790    2.6610 h1        1 MOL      0.105252
     60 N6          5.9350   -1.1780   -0.0170 n         1 MOL     -0.133151
     61 C19         6.4440    0.0130   -0.6450 c3        1 MOL     -0.063071
     62 C20         6.4910    1.3280    0.2680 c         1 MOL      0.378193
     63 O10         7.0770    2.3290   -0.0760 o         1 MOL     -0.445130
     64 C21         5.8950    0.1940   -2.0960 c3        1 MOL     -0.190363
     65 C22         4.6210    1.0510   -2.0450 c         1 MOL      0.307291
     66 N7          4.4850    2.0700   -2.9030 n         1 MOL     -0.616325
     67 O11         3.8020    0.8400   -1.1280 o         1 MOL     -0.503205
     68 H28         4.9500   -1.2410   -0.2170 hn        1 MOL      0.076494
     69 H29         7.5100   -0.1990   -0.7290 h1        1 MOL      0.101197
     70 H30         5.7000   -0.7600   -2.5830 hc        1 MOL      0.142227
     71 H31         6.6800    0.6450   -2.6880 hc        1 MOL      0.142227
     72 H32         5.2630    2.2280   -3.5420 hn        1 MOL      0.356469
     73 H33         3.6360    2.6150   -2.9220 hn        1 MOL      0.356469
     74 N8          5.8460    1.3330    1.4430 n         1 MOL     -0.223150
     75 C23         5.7280    2.5770    2.1750 c3        1 MOL     -0.080215
     76 C24         4.4920    3.3770    1.7940 c         1 MOL      0.496758
     77 O12         4.4540    4.5340    2.1180 o         1 MOL     -0.520735
     78 H34         5.3010    0.5490    1.7540 hn        1 MOL      0.203940
     79 H35         6.6290    3.1700    2.0830 h1        1 MOL      0.086480
     80 H36         5.7400    2.3950    3.2550 h1        1 MOL      0.086480
     81 N9          3.4940    2.7540    1.1470 n         1 MOL     -0.300431
     82 C25         2.2710    3.5170    0.8170 c3        1 MOL      0.150714
     83 C26         1.0480    2.5850    0.8060 c         1 MOL      0.665152
     84 O13         1.0770    1.4230    0.3370 o         1 MOL     -0.625764
     85 C27         2.4510    4.2100   -0.5560 c3        1 MOL      0.138757
     86 C28         3.4750    5.2430   -0.8490 ca        1 MOL     -0.254878
     87 C29         4.8540    4.9330   -1.0730 ca        1 MOL      0.101267
     88 C30         3.0550    6.5740   -1.0510 ca        1 MOL      0.101267
     89 C31         5.6830    5.9250   -1.6610 ca        1 MOL     -0.443668
     90 C32         3.9850    7.5510   -1.4710 ca        1 MOL     -0.443668
     91 C33         5.3050    7.2240   -1.7650 ca        1 MOL      0.518952
     92 O14         6.1740    8.1560   -2.3260 oh        1 MOL     -0.500206
     93 H37         3.4440    1.7450    1.2300 hn        1 MOL      0.165145
     94 H38         2.0100    4.2540    1.5780 h1        1 MOL     -0.007441
     95 H39         1.4810    4.6190   -0.8400 hc        1 MOL     -0.025116
     96 H40         2.6750    3.3760   -1.2200 hc        1 MOL     -0.025116
     97 H41         5.2040    3.9340   -0.8760 ha        1 MOL      0.058974
     98 H42         2.0180    6.8560   -0.9160 ha        1 MOL      0.058974
     99 H43         6.7200    5.7050   -1.8420 ha        1 MOL      0.172795
    100 H44         3.6330    8.5580   -1.6340 ha        1 MOL      0.172795
    101 H45         5.7010    8.9650   -2.4940 ho        1 MOL      0.333471
    102 N10        -0.0530    3.1000    1.3830 n         1 MOL     -0.656729
    103 C34        -1.4140    2.6070    1.1250 c3        1 MOL     -0.053740
    104 C35        -2.3100    3.3680    0.1480 c         1 MOL      0.498985
    105 O15        -2.5430    4.5610    0.1930 o         1 MOL     -0.557670
    106 C36        -2.1730    2.2130    2.3630 c3        1 MOL      0.276558
    107 C37        -2.6360    3.4430    3.2250 c3        1 MOL     -0.253041
    108 C38        -1.3560    1.1560    3.1640 c3        1 MOL     -0.445737
    109 C39        -3.2610    3.1230    4.6320 c3        1 MOL     -0.108125
    110 H46        -0.0860    4.0280    1.7890 hn        1 MOL      0.372391
    111 H47        -1.3090    1.7040    0.5180 h1        1 MOL      0.130810
    112 H48        -3.1140    1.7170    2.1100 hc        1 MOL     -0.064361
    113 H49        -3.3710    3.9790    2.6260 hc        1 MOL      0.085026
    114 H50        -1.7360    4.0490    3.3580 hc        1 MOL      0.085026
    115 H51        -0.9510    0.4070    2.4760 hc        1 MOL      0.133829
    116 H52        -0.5790    1.6260    3.7620 hc        1 MOL      0.133829
    117 H53        -1.9960    0.6350    3.8880 hc        1 MOL      0.133829
    118 H54        -2.4830    2.6320    5.2210 hc        1 MOL      0.039880
    119 H55        -3.6900    4.0100    5.0940 hc        1 MOL      0.039880
    120 H56        -4.0890    2.4420    4.4870 hc        1 MOL      0.039880
    121 N11        -2.9010    2.6140   -0.7530 n         1 MOL     -0.116715
    122 C40        -3.9790    2.9450   -1.6660 c3        1 MOL     -0.069382
    123 C41        -5.4250    3.0390   -1.0870 c         1 MOL      0.517507
    124 O16        -5.6130    2.5810    0.0630 o         1 MOL     -0.411293
    125 C42        -3.9730    1.9840   -2.7830 c3        1 MOL     -0.150264
    126 O17        -4.2670    0.6540   -2.3160 oh        1 MOL     -0.485778
    127 H57        -2.5840    1.6620   -0.8520 hn        1 MOL      0.092442
    128 H58        -3.8470    3.9470   -2.0900 h1        1 MOL      0.057858
    129 H59        -2.9960    2.0380   -3.2580 h1        1 MOL      0.111548
    130 H60        -4.6490    2.2290   -3.5920 h1        1 MOL      0.111548
    131 H61        -3.4650    0.3750   -1.8610 ho        1 MOL      0.347658
    132 N12        -6.4420    3.4290   -1.8830 n         1 MOL     -0.493760
    133 C43        -7.8180    3.3300   -1.4160 c3        1 MOL      0.192935
    134 C44        -8.2000    1.9030   -1.0300 c         1 MOL      0.443976
    135 O18        -8.7860    1.6540    0.0060 o         1 MOL     -0.496218
    136 C45        -8.7220    3.9360   -2.4690 c3        1 MOL     -0.183637
    137 H62        -6.2240    3.7570   -2.8170 hn        1 MOL      0.291752
    138 H63        -7.9000    3.9870   -0.5480 h1        1 MOL      0.058761
    139 H64        -8.3920    4.9070   -2.8520 hc        1 MOL      0.053865
    140 H65        -8.7540    3.1700   -3.2350 hc        1 MOL      0.053865
    141 H66        -9.6810    4.0570   -1.9760 hc        1 MOL      0.053865
    142 N13        -7.7070    0.9340   -1.8260 n         1 MOL     -0.392218
    143 C46        -7.9780   -0.5050   -1.7320 c3        1 MOL      0.195169
    144 C47        -7.2950   -1.0990   -0.4830 c         1 MOL      0.354433
    145 O19        -7.9750   -1.7360    0.2630 o         1 MOL     -0.483143
    146 C48        -7.5930   -1.1450   -3.0290 c3        1 MOL     -0.455602
    147 H67        -7.1480    1.1950   -2.6190 hn        1 MOL      0.288268
    148 H68        -9.0480   -0.6670   -1.5550 h1        1 MOL      0.073546
    149 H69        -6.5960   -0.8990   -3.4100 hc        1 MOL      0.111158
    150 H70        -7.7490   -2.2080   -2.8800 hc        1 MOL      0.111158
    151 H71        -8.3000   -0.8100   -3.7840 hc        1 MOL      0.111158
    152 N14        -6.0100   -0.8040   -0.2600 n         1 MOL     -0.181771
    153 C49        -5.2770   -1.2110    0.9540 c3        1 MOL     -0.075377
    154 C50        -5.9780   -0.5810    2.1630 c         1 MOL      0.420679
    155 O20        -6.1110   -1.2760    3.1180 o         1 MOL     -0.547744
    156 C51        -3.7720   -0.7680    0.9990 c3        1 MOL      0.360704
    157 C52        -2.9820   -1.5780    0.0190 c3        1 MOL     -0.422599
    158 C53        -1.6810   -0.9040   -0.4350 c         1 MOL      0.746635
    159 O21        -1.7930    0.0100   -1.3130 o         1 MOL     -0.673175
    160 O22        -0.5910   -1.3170    0.0030 o         1 MOL     -0.673175
    161 H72        -5.5120   -0.2810   -0.9660 hn        1 MOL      0.149004
    162 H73        -5.2610   -2.2930    1.1220 h1        1 MOL      0.090785
    163 H74        -3.3640   -0.7980    2.0080 hc        1 MOL     -0.011456
    164 H75        -3.6890    0.2510    0.6360 hc        1 MOL     -0.011456
    165 H76        -3.5480   -1.7650   -0.8820 hc        1 MOL      0.035952
    166 H77        -2.6360   -2.5180    0.4600 hc        1 MOL      0.035952
    167 N15        -6.4070    0.6690    2.0640 n         1 MOL      0.049620
    168 C54        -7.1050    1.3800    3.1760 c3        1 MOL     -0.430725
    169 H78        -6.3820    1.9700    3.7400 h1        1 MOL      0.147582
    170 H79        -7.8690    2.0400    2.7630 h1        1 MOL      0.147582
    171 H80        -7.5730    0.6510    3.8380 h1        1 MOL      0.147582
    172 H81        -6.2700    1.1310    1.1780 hn        1 MOL      0.059474
    173 Ca1         1.5420   -0.4560   -1.3430 Ca        1 MOL      1.765019
    174 O23         0.5210   -2.1340   -3.1810 oh        1 MOL     -0.917964
    175 H82         1.1890   -2.4200   -3.8120 ho        1 MOL      0.434994
    176 H83        -0.3070   -2.3880   -3.5790 ho        1 MOL      0.434994
    177 O24         0.5540    1.4140   -2.9270 oh        1 MOL     -0.917964
    178 H84         0.3730    1.0280   -3.7890 ho        1 MOL      0.434994
    179 H85         0.0190    2.2060   -2.9130 ho        1 MOL      0.434994
@<TRIPOS>BOND
     1    1    2 1   
     2    1    4 1   
     3    1    5 1   
     4    1    6 1   
     5    2    3 2   
     6    2    7 1   
     7    7    8 1   
     8    7   15 1   
     9    8    9 1   
    10    8   11 1   
    11    8   16 1   
    12    9   10 2   
    13    9   19 1   
    14   11   12 1   
    15   11   17 1   
    16   11   18 1   
    17   12   13 1   
    18   12   14 1   
    19   19   20 1   
    20   19   28 1   
    21   20   21 1   
    22   20   23 1   
    23   20   29 1   
    24   21   22 2   
    25   21   41 1   
    26   23   24 1   
    27   23   30 1   
    28   23   31 1   
    29   24   25 1   
    30   24   32 1   
    31   24   33 1   
    32   25   26 1   
    33   25   34 1   
    34   25   35 1   
    35   26   27 1   
    36   26   36 1   
    37   26   37 1   
    38   27   38 1   
    39   27   39 1   
    40   27   40 1   
    41   41   42 1   
    42   41   49 1   
    43   42   43 1   
    44   42   45 1   
    45   42   50 1   
    46   43   44 2   
    47   43   53 1   
    48   45   46 1   
    49   45   51 1   
    50   45   52 1   
    51   46   47 1   
    52   46   48 1   
    53   53   54 1   
    54   53   57 1   
    55   54   55 1   
    56   54   58 1   
    57   54   59 1   
    58   55   56 2   
    59   55   60 1   
    60   60   61 1   
    61   60   68 1   
    62   61   62 1   
    63   61   64 1   
    64   61   69 1   
    65   62   63 2   
    66   62   74 1   
    67   64   65 1   
    68   64   70 1   
    69   64   71 1   
    70   65   66 1   
    71   65   67 2   
    72   66   72 1   
    73   66   73 1   
    74   74   75 1   
    75   74   78 1   
    76   75   76 1   
    77   75   79 1   
    78   75   80 1   
    79   76   77 2   
    80   76   81 1   
    81   81   82 1   
    82   81   93 1   
    83   82   83 1   
    84   82   85 1   
    85   82   94 1   
    86   83   84 2   
    87   83  102 1   
    88   85   86 1   
    89   85   95 1   
    90   85   96 1   
    91   86   87 ar  
    92   86   88 ar  
    93   87   89 ar  
    94   87   97 1   
    95   88   90 ar  
    96   88   98 1   
    97   89   91 ar  
    98   89   99 1   
    99   90   91 ar  
   100   90  100 1   
   101   91   92 1   
   102   92  101 1   
   103  102  103 1   
   104  102  110 1   
   105  103  104 1   
   106  103  106 1   
   107  103  111 1   
   108  104  105 2   
   109  104  121 1   
   110  106  107 1   
   111  106  108 1   
   112  106  112 1   
   113  107  109 1   
   114  107  113 1   
   115  107  114 1   
   116  108  115 1   
   117  108  116 1   
   118  108  117 1   
   119  109  118 1   
   120  109  119 1   
   121  109  120 1   
   122  121  122 1   
   123  121  127 1   
   124  122  123 1   
   125  122  125 1   
   126  122  128 1   
   127  123  124 2   
   128  123  132 1   
   129  125  126 1   
   130  125  129 1   
   131  125  130 1   
   132  126  131 1   
   133  132  133 1   
   134  132  137 1   
   135  133  134 1   
   136  133  136 1   
   137  133  138 1   
   138  134  135 2   
   139  134  142 1   
   140  136  139 1   
   141  136  140 1   
   142  136  141 1   
   143  142  143 1   
   144  142  147 1   
   145  143  144 1   
   146  143  146 1   
   147  143  148 1   
   148  144  145 2   
   149  144  152 1   
   150  146  149 1   
   151  146  150 1   
   152  146  151 1   
   153  152  153 1   
   154  152  161 1   
   155  153  154 1   
   156  153  156 1   
   157  153  162 1   
   158  154  155 2   
   159  154  167 1   
   160  156  157 1   
   161  156  163 1   
   162  156  164 1   
   163  157  158 1   
   164  157  165 1   
   165  157  166 1   
   166  158  159 1   
   167  158  160 1   
   168  167  168 1   
   169  167  172 1   
   170  168  169 1   
   171  168  170 1   
   172  168  171 1   
   173  174  175 1   
   174  174  176 1   
   175  177  178 1   
   176  177  179 1   
@<TRIPOS>SUBSTRUCTURE
     1 MOL         1 TEMP              0 ****  ****    0 ROOT
