@<TRIPOS>MOLECULE
MOL
  183   181     1     0     0
SMALL
resp


@<TRIPOS>ATOM
      1 C1         -0.7910    0.6030    6.5030 c3        1 MOL     -0.288065
      2 C2         -1.1990    0.8010    5.0140 c         1 MOL      0.745296
      3 O1         -0.4680    1.3990    4.2340 o         1 MOL     -0.580719
      4 H1          0.2650    0.3390    6.5580 hc        1 MOL      0.067132
      5 H2         -0.9630    1.5280    7.0530 hc        1 MOL      0.067132
      6 H3         -1.3880   -0.1980    6.9410 hc        1 MOL      0.067132
      7 N1         -2.4480    0.4740    4.5940 n         1 MOL     -0.724977
      8 C3         -2.9850    0.7780    3.2130 c3        1 MOL      0.293276
      9 C4         -3.2160    2.2750    2.9070 c         1 MOL      0.570923
     10 O2         -4.1050    2.8330    3.5560 o         1 MOL     -0.603937
     11 C5         -4.1940   -0.1370    2.9170 c3        1 MOL     -0.437822
     12 C6         -4.9180    0.1260    1.5510 c         1 MOL      0.900465
     13 O3         -6.1470   -0.1140    1.3710 o         1 MOL     -0.689360
     14 O4         -4.1760    0.6540    0.7080 o         1 MOL     -0.689360
     15 H4         -3.1070    0.0840    5.2620 hn        1 MOL      0.353751
     16 H5         -2.2260    0.5190    2.4760 h1        1 MOL     -0.007205
     17 H6         -4.8730    0.1160    3.7390 hc        1 MOL      0.081652
     18 H7         -3.9430   -1.1980    2.9220 hc        1 MOL      0.081652
     19 N2         -2.5160    2.9770    2.0520 n         1 MOL     -0.233976
     20 C7         -2.5940    4.4290    1.7780 c3        1 MOL     -0.394000
     21 C8         -3.6720    4.8400    0.7490 c         1 MOL      0.696711
     22 O5         -4.1670    5.9890    0.7270 o         1 MOL     -0.584989
     23 C9         -1.1830    4.8320    1.1640 c3        1 MOL      0.281901
     24 C10        -0.1040    4.5810    2.2460 c3        1 MOL      0.073223
     25 C11        -1.2460    6.1900    0.5260 c3        1 MOL     -0.468919
     26 C12         0.0740    5.6120    3.3650 c3        1 MOL     -0.127792
     27 H8         -1.7110    2.4530    1.7650 hn        1 MOL      0.307551
     28 H9         -2.6380    5.0140    2.6960 h1        1 MOL      0.140130
     29 H10        -0.9120    4.1240    0.3690 hc        1 MOL     -0.010419
     30 H11         0.8430    4.6720    1.7180 hc        1 MOL      0.012859
     31 H12        -0.1730    3.5940    2.6980 hc        1 MOL      0.012859
     32 H13        -1.7540    6.1830   -0.4340 hc        1 MOL      0.114230
     33 H14        -1.7750    6.8240    1.2340 hc        1 MOL      0.114230
     34 H15        -0.2540    6.5850    0.2850 hc        1 MOL      0.114230
     35 H16        -0.8170    5.7930    3.9730 hc        1 MOL      0.015699
     36 H17         0.8270    5.2970    4.0820 hc        1 MOL      0.015699
     37 H18         0.3370    6.5720    2.9200 hc        1 MOL      0.015699
     38 N3         -4.1540    3.8380   -0.0450 n         1 MOL     -0.410295
     39 C13        -5.0870    4.0680   -1.2140 c3        1 MOL     -0.201696
     40 C14        -6.3280    3.2620   -1.3960 c         1 MOL      0.585964
     41 O6         -7.0490    3.3460   -2.4230 o         1 MOL     -0.537632
     42 C15        -4.2660    3.9630   -2.5010 c3        1 MOL      0.129014
     43 C16        -3.4900    2.6970   -2.7510 c         1 MOL      0.710658
     44 O7         -3.6010    1.6150   -2.0800 o         1 MOL     -0.702351
     45 O8         -2.8070    2.7570   -3.7930 o         1 MOL     -0.702351
     46 H19        -3.8330    2.9010    0.1380 hn        1 MOL      0.174761
     47 H20        -5.4890    5.0730   -1.0630 h1        1 MOL      0.105360
     48 H21        -3.5090    4.7480   -2.4310 hc        1 MOL     -0.021907
     49 H22        -4.8950    4.2190   -3.3550 hc        1 MOL     -0.021907
     50 N4         -6.7070    2.5160   -0.3630 n         1 MOL     -0.292183
     51 C17        -7.9500    1.7230   -0.3680 c3        1 MOL     -0.232024
     52 C18        -8.0610    0.5370   -1.3800 c         1 MOL      0.613906
     53 O9         -8.7110    0.5890   -2.4300 o         1 MOL     -0.576051
     54 H23        -6.0250    2.3320    0.3580 hn        1 MOL      0.275075
     55 H24        -8.7940    2.3730   -0.5800 h1        1 MOL      0.083463
     56 H25        -8.0570    1.2540    0.6140 h1        1 MOL      0.083463
     57 N5         -7.4090   -0.5800   -1.0490 n         1 MOL     -0.344596
     58 C19        -7.4800   -1.9140   -1.7370 c3        1 MOL     -0.000304
     59 C20        -7.2940   -3.1190   -0.8040 c         1 MOL      0.468513
     60 O10        -7.8120   -4.2190   -1.0960 o         1 MOL     -0.564854
     61 C21        -6.3220   -1.9590   -2.7980 c3        1 MOL     -0.055087
     62 C22        -4.8630   -1.6670   -2.3410 c         1 MOL      0.616564
     63 O11        -4.0350   -1.0390   -3.0480 o         1 MOL     -0.668093
     64 O12        -4.5380   -2.1360   -1.2090 o         1 MOL     -0.668093
     65 H26        -6.8470   -0.5190   -0.2080 hn        1 MOL      0.118487
     66 H27        -8.4060   -1.9350   -2.3020 h1        1 MOL      0.069979
     67 H28        -6.4740   -1.1170   -3.4690 hc        1 MOL      0.026218
     68 H29        -6.4000   -2.8530   -3.4130 hc        1 MOL      0.026218
     69 N6         -6.8340   -2.8590    0.4140 n         1 MOL     -0.285609
     70 C23        -6.5620   -3.8810    1.4780 c3        1 MOL     -0.124499
     71 C24        -5.2370   -4.6740    1.3920 c         1 MOL      0.514135
     72 O13        -5.0180   -5.6220    2.1620 o         1 MOL     -0.598630
     73 H30        -6.5310   -1.9430    0.7130 hn        1 MOL      0.274943
     74 H31        -7.3780   -4.5870    1.3340 h1        1 MOL      0.076904
     75 H32        -6.6810   -3.3660    2.4290 h1        1 MOL      0.076904
     76 N7         -4.2700   -4.2300    0.5700 n         1 MOL     -0.118871
     77 C25        -2.9090   -4.7440    0.4100 c3        1 MOL     -0.030312
     78 C26        -1.8950   -3.6560    0.8170 c         1 MOL      0.533165
     79 O14        -2.2500   -2.4650    0.9090 o         1 MOL     -0.638373
     80 C27        -2.5720   -5.4110   -0.9250 c3        1 MOL     -0.043640
     81 C28        -2.7480   -4.7130   -2.2350 c3        1 MOL     -0.004109
     82 C29        -1.7160   -3.6870   -2.5680 c         1 MOL      0.453242
     83 N8         -1.0230   -3.8580   -3.7250 n         1 MOL     -0.652988
     84 O15        -1.4430   -2.6460   -1.9590 o         1 MOL     -0.435782
     85 H33        -4.4110   -3.3760    0.0400 hn        1 MOL      0.117899
     86 H34        -2.7880   -5.4860    1.2070 h1        1 MOL      0.053175
     87 H35        -3.1720   -6.3300   -0.9790 hc        1 MOL      0.001930
     88 H36        -1.5390   -5.7220   -0.8390 hc        1 MOL      0.001930
     89 H37        -3.6780   -4.1510   -2.2390 hc        1 MOL      0.034920
     90 H38        -2.9280   -5.4750   -2.9970 hc        1 MOL      0.034920
     91 H39        -1.0780   -4.7660   -4.1640 hn        1 MOL      0.305645
     92 H40        -0.2580   -3.2730   -4.0280 hn        1 MOL      0.305645
     93 N9         -0.6310   -4.0580    1.1130 n         1 MOL     -0.282145
     94 C30         0.4980   -3.1200    1.3510 c3        1 MOL     -0.058561
     95 C31         1.6980   -3.3430    0.4090 c         1 MOL      0.311472
     96 O16         2.3600   -4.3850    0.5440 o         1 MOL     -0.559075
     97 C32         0.8280   -3.0890    2.8890 c3        1 MOL      0.297528
     98 C33         2.0520   -2.2990    3.1620 c3        1 MOL     -0.229107
     99 C34        -0.3310   -2.6130    3.6550 c3        1 MOL     -0.229107
    100 H41        -0.4720   -4.9890    1.4740 hn        1 MOL      0.232631
    101 H42         0.0550   -2.1440    1.1390 h1        1 MOL      0.162123
    102 H43         1.0180   -4.1190    3.2190 hc        1 MOL     -0.047139
    103 H44         2.2480   -2.3260    4.2310 hc        1 MOL      0.040853
    104 H45         2.9530   -2.7830    2.7800 hc        1 MOL      0.040853
    105 H46         1.9380   -1.2910    2.7640 hc        1 MOL      0.040853
    106 H47         0.0060   -2.3780    4.6680 hc        1 MOL      0.040853
    107 H48        -0.7660   -1.6960    3.2540 hc        1 MOL      0.040853
    108 H49        -1.0640   -3.4010    3.7580 hc        1 MOL      0.040853
    109 N10         1.9760   -2.5080   -0.5630 n         1 MOL     -0.069372
    110 C35         3.0670   -2.6630   -1.4060 c3        1 MOL      0.199735
    111 C36         4.3900   -2.0650   -0.7210 c         1 MOL      0.313534
    112 O17         4.3010   -1.5030    0.3170 o         1 MOL     -0.169475
    113 C37         2.6650   -2.0590   -2.8180 c3        1 MOL     -0.461623
    114 C38         3.1840   -0.6330   -3.0320 c         1 MOL      0.758400
    115 N11         2.4130    0.3310   -2.6820 n         1 MOL     -0.795657
    116 O18         4.3600   -0.4920   -3.3340 o         1 MOL     -0.627875
    117 H50         1.4310   -1.6790   -0.7300 hn        1 MOL     -0.019783
    118 H51         3.2640   -3.7350   -1.4900 h1        1 MOL      0.051626
    119 H52         1.6010   -2.0380   -3.0390 hc        1 MOL      0.135831
    120 H53         3.1100   -2.6810   -3.5910 hc        1 MOL      0.135831
    121 H54         1.5100    0.1390   -2.2720 hn        1 MOL      0.405975
    122 H55         2.6460    1.2510   -3.0170 hn        1 MOL      0.405975
    123 N12         5.6140   -2.2950   -1.2900 n         1 MOL     -0.679876
    124 C39         6.8410   -1.7840   -0.7000 c3        1 MOL      0.426247
    125 C40         6.8060   -0.2560   -0.4630 c         1 MOL      0.485849
    126 O19         7.3000    0.1790    0.5960 o         1 MOL     -0.573628
    127 C41         7.9830   -2.1680   -1.6170 c3        1 MOL     -0.138519
    128 C42         9.3270   -1.9910   -0.9600 ca        1 MOL     -0.030665
    129 C43         9.5090   -2.5210    0.3150 ca        1 MOL     -0.090161
    130 C44        10.3720   -1.1820   -1.5170 ca        1 MOL     -0.090161
    131 C45        10.6420   -2.3140    1.0840 ca        1 MOL     -0.354750
    132 C46        11.5570   -1.0110   -0.8070 ca        1 MOL     -0.354750
    133 C47        11.5910   -1.4720    0.5360 ca        1 MOL      0.471654
    134 O20        12.7600   -1.2620    1.2210 oh        1 MOL     -0.561737
    135 H56         5.6290   -2.6500   -2.2340 hn        1 MOL      0.331696
    136 H57         7.0060   -2.2840    0.2590 h1        1 MOL      0.016839
    137 H58         7.9050   -1.5710   -2.5330 hc        1 MOL      0.038000
    138 H59         7.9290   -3.2270   -1.8590 hc        1 MOL      0.038000
    139 H60         8.7310   -3.1520    0.7150 ha        1 MOL      0.121014
    140 H61        10.2740   -0.8170   -2.5400 ha        1 MOL      0.121014
    141 H62        10.7300   -2.6680    2.0980 ha        1 MOL      0.168101
    142 H63        12.3610   -0.3870   -1.1700 ha        1 MOL      0.168101
    143 H64        13.3170   -0.5480    0.9250 ho        1 MOL      0.368227
    144 N13         6.1530    0.5200   -1.2750 n         1 MOL     -0.407944
    145 C48         6.1210    1.9720   -1.1290 c3        1 MOL      0.021802
    146 C49         5.2960    2.4480    0.1290 c         1 MOL      0.257475
    147 O21         5.5170    3.5240    0.7450 o         1 MOL     -0.501095
    148 C50         5.6550    2.6240   -2.4070 c3        1 MOL     -0.040471
    149 C51         5.5460    4.1840   -2.3570 c3        1 MOL     -0.300493
    150 C52         5.2670    4.7220   -3.8090 c         1 MOL      0.725178
    151 O22         6.2440    4.9070   -4.5620 o         1 MOL     -0.742661
    152 O23         4.0880    4.8320   -4.1860 o         1 MOL     -0.742661
    153 H65         5.6710    0.1670   -2.0790 hn        1 MOL      0.269287
    154 H66         7.1350    2.2810   -0.8540 h1        1 MOL      0.103474
    155 H67         4.6400    2.3000   -2.6160 hc        1 MOL      0.058183
    156 H68         6.3750    2.3080   -3.1540 hc        1 MOL      0.058183
    157 H69         6.4430    4.5760   -1.8890 hc        1 MOL      0.053445
    158 H70         4.7780    4.5350   -1.6790 hc        1 MOL      0.053445
    159 N14         4.3720    1.6520    0.5880 n         1 MOL      0.025888
    160 C53         3.5440    1.8140    1.7190 c3        1 MOL     -0.033598
    161 C54         4.2300    1.1620    2.8870 c         1 MOL      0.351095
    162 O24         4.2740    1.6360    4.0660 o         1 MOL     -0.571017
    163 C55         2.1640    1.0790    1.5380 c3        1 MOL      0.001982
    164 C56         1.3750    1.7000    0.3710 c3        1 MOL      0.184388
    165 C57         0.1060    0.8640    0.0870 c         1 MOL      0.752630
    166 O25        -0.9910    1.3150    0.3800 o         1 MOL     -0.802253
    167 O26         0.1780   -0.1800   -0.5800 o         1 MOL     -0.802253
    168 H71         4.1240    0.7820    0.1390 hn        1 MOL      0.119856
    169 H72         3.3970    2.8720    1.9610 h1        1 MOL      0.077085
    170 H73         1.5810    1.2690    2.4420 hc        1 MOL      0.028620
    171 H74         2.3430    0.0400    1.2740 hc        1 MOL      0.028620
    172 H75         2.0410    1.8300   -0.4900 hc        1 MOL     -0.080871
    173 H76         1.0200    2.6580    0.7500 hc        1 MOL     -0.080871
    174 N15         4.9200    0.0360    2.7060 n         1 MOL      0.097443
    175 C58         5.7530   -0.6710    3.6890 c3        1 MOL     -0.237598
    176 H77         6.8050   -0.4660    3.4870 h1        1 MOL      0.082505
    177 H78         5.5020   -0.3280    4.6930 h1        1 MOL      0.082505
    178 H79         5.5720   -1.7430    3.6150 h1        1 MOL      0.082505
    179 H80         4.7880   -0.5160    1.8590 hn        1 MOL     -0.088272
    180 Ca1        -2.4520   -0.3110   -1.0360 Ca        1 MOL      1.768029
    181 O27        -1.3210    0.5370   -3.6420 oh        1 MOL     -0.901710
    182 H81        -2.0160    1.1810   -3.5860 ho        1 MOL      0.410069
    183 H82        -0.7900    0.8200   -4.3820 ho        1 MOL      0.410069
@<TRIPOS>BOND
     1    1    2 1   
     2    1    4 1   
     3    1    5 1   
     4    1    6 1   
     5    2    3 2   
     6    2    7 1   
     7    7    8 1   
     8    7   15 1   
     9    8    9 1   
    10    8   11 1   
    11    8   16 1   
    12    9   10 2   
    13    9   19 1   
    14   11   12 1   
    15   11   17 1   
    16   11   18 1   
    17   12   13 1   
    18   12   14 1   
    19   19   20 1   
    20   19   27 1   
    21   20   21 1   
    22   20   23 1   
    23   20   28 1   
    24   21   22 2   
    25   21   38 1   
    26   23   24 1   
    27   23   25 1   
    28   23   29 1   
    29   24   26 1   
    30   24   30 1   
    31   24   31 1   
    32   25   32 1   
    33   25   33 1   
    34   25   34 1   
    35   26   35 1   
    36   26   36 1   
    37   26   37 1   
    38   38   39 1   
    39   38   46 1   
    40   39   40 1   
    41   39   42 1   
    42   39   47 1   
    43   40   41 2   
    44   40   50 1   
    45   42   43 1   
    46   42   48 1   
    47   42   49 1   
    48   43   44 1   
    49   43   45 1   
    50   50   51 1   
    51   50   54 1   
    52   51   52 1   
    53   51   55 1   
    54   51   56 1   
    55   52   53 2   
    56   52   57 1   
    57   57   58 1   
    58   57   65 1   
    59   58   59 1   
    60   58   61 1   
    61   58   66 1   
    62   59   60 2   
    63   59   69 1   
    64   61   62 1   
    65   61   67 1   
    66   61   68 1   
    67   62   63 1   
    68   62   64 1   
    69   69   70 1   
    70   69   73 1   
    71   70   71 1   
    72   70   74 1   
    73   70   75 1   
    74   71   72 2   
    75   71   76 1   
    76   76   77 1   
    77   76   85 1   
    78   77   78 1   
    79   77   80 1   
    80   77   86 1   
    81   78   79 2   
    82   78   93 1   
    83   80   81 1   
    84   80   87 1   
    85   80   88 1   
    86   81   82 1   
    87   81   89 1   
    88   81   90 1   
    89   82   83 1   
    90   82   84 2   
    91   83   91 1   
    92   83   92 1   
    93   93   94 1   
    94   93  100 1   
    95   94   95 1   
    96   94   97 1   
    97   94  101 1   
    98   95   96 2   
    99   95  109 1   
   100   97   98 1   
   101   97   99 1   
   102   97  102 1   
   103   98  103 1   
   104   98  104 1   
   105   98  105 1   
   106   99  106 1   
   107   99  107 1   
   108   99  108 1   
   109  109  110 1   
   110  109  117 1   
   111  110  111 1   
   112  110  113 1   
   113  110  118 1   
   114  111  112 2   
   115  111  123 1   
   116  113  114 1   
   117  113  119 1   
   118  113  120 1   
   119  114  115 1   
   120  114  116 2   
   121  115  121 1   
   122  115  122 1   
   123  123  124 1   
   124  123  135 1   
   125  124  125 1   
   126  124  127 1   
   127  124  136 1   
   128  125  126 2   
   129  125  144 1   
   130  127  128 1   
   131  127  137 1   
   132  127  138 1   
   133  128  129 ar  
   134  128  130 ar  
   135  129  131 ar  
   136  129  139 1   
   137  130  132 ar  
   138  130  140 1   
   139  131  133 ar  
   140  131  141 1   
   141  132  133 ar  
   142  132  142 1   
   143  133  134 1   
   144  134  143 1   
   145  144  145 1   
   146  144  153 1   
   147  145  146 1   
   148  145  148 1   
   149  145  154 1   
   150  146  147 2   
   151  146  159 1   
   152  148  149 1   
   153  148  155 1   
   154  148  156 1   
   155  149  150 1   
   156  149  157 1   
   157  149  158 1   
   158  150  151 1   
   159  150  152 1   
   160  159  160 1   
   161  159  168 1   
   162  160  161 1   
   163  160  163 1   
   164  160  169 1   
   165  161  162 2   
   166  161  174 1   
   167  163  164 1   
   168  163  170 1   
   169  163  171 1   
   170  164  165 1   
   171  164  172 1   
   172  164  173 1   
   173  165  166 1   
   174  165  167 1   
   175  174  175 1   
   176  174  179 1   
   177  175  176 1   
   178  175  177 1   
   179  175  178 1   
   180  181  182 1   
   181  181  183 1   
@<TRIPOS>SUBSTRUCTURE
     1 MOL         1 TEMP              0 ****  ****    0 ROOT
