@<TRIPOS>MOLECULE
MOL
  189   185     1     0     0
SMALL
resp


@<TRIPOS>ATOM
      1 C1         -0.0930    3.0750   -4.7930 c3        1 MOL     -0.352211
      2 C2          0.6070    2.8640   -3.4720 c         1 MOL      0.641175
      3 O1          0.2100    3.4350   -2.4170 o         1 MOL     -0.575821
      4 H1         -0.9390    2.3930   -4.8680 hc        1 MOL      0.096603
      5 H2         -0.4490    4.1040   -4.8550 hc        1 MOL      0.096603
      6 H3          0.6030    2.8820   -5.6090 hc        1 MOL      0.096603
      7 N1          1.7140    2.0700   -3.4780 n         1 MOL     -0.528972
      8 C3          2.4090    1.7620   -2.2260 c3        1 MOL      0.143004
      9 C4          3.2560    2.9550   -1.6770 c         1 MOL      0.350630
     10 O2          4.4670    3.0270   -1.9930 o         1 MOL     -0.485223
     11 C5          3.3040    0.5690   -2.4510 c3        1 MOL     -0.365239
     12 C6          3.8470   -0.0590   -1.1490 c         1 MOL      0.853152
     13 O3          3.3370    0.1680   -0.0710 o         1 MOL     -0.718604
     14 O4          4.6830   -0.9650   -1.2090 o         1 MOL     -0.718604
     15 H4          2.0360    1.5430   -4.2760 hn        1 MOL      0.312292
     16 H5          1.6280    1.5090   -1.5100 h1        1 MOL      0.079518
     17 H6          4.1790    0.8670   -3.0240 hc        1 MOL      0.086116
     18 H7          2.6560   -0.2010   -2.8570 hc        1 MOL      0.086116
     19 N2          2.6490    3.7610   -0.7670 n         1 MOL     -0.202595
     20 C7          3.3550    4.8640   -0.2000 c3        1 MOL      0.045452
     21 C8          4.0440    4.7590    1.1490 c         1 MOL      0.588318
     22 O5          4.6480    5.6820    1.5550 o         1 MOL     -0.567446
     23 C9          2.3930    6.0490   -0.1440 c3        1 MOL     -0.167792
     24 C10         1.7980    6.5590   -1.4510 c3        1 MOL      0.085870
     25 C11         2.9000    7.0440   -2.4480 c3        1 MOL     -0.047094
     26 C12         2.4460    7.7290   -3.6470 c3        1 MOL      0.046282
     27 N3          3.6020    8.1490   -4.5240 n4        1 MOL     -0.325385
     28 H8          1.6740    3.6100   -0.5770 hn        1 MOL      0.302360
     29 H9          4.1640    5.1020   -0.8860 h1        1 MOL      0.005057
     30 H10         2.8610    6.8980    0.3620 hc        1 MOL      0.046316
     31 H11         1.6390    5.6630    0.5360 hc        1 MOL      0.046316
     32 H12         1.0880    7.3830   -1.3250 hc        1 MOL      0.005302
     33 H13         1.2060    5.8330   -2.0080 hc        1 MOL      0.005302
     34 H14         3.4280    6.1530   -2.7970 hc        1 MOL      0.043696
     35 H15         3.5510    7.7160   -1.8850 hc        1 MOL      0.043696
     36 H16         1.9140    8.5860   -3.2360 hx        1 MOL      0.071700
     37 H17         1.7440    7.1580   -4.2520 hx        1 MOL      0.071700
     38 H18         3.2930    8.5300   -5.4160 hn        1 MOL      0.313427
     39 H19         4.2410    8.8780   -4.2190 hn        1 MOL      0.313427
     40 H20         4.2290    7.3810   -4.7010 hn        1 MOL      0.313427
     41 N4          3.9040    3.5850    1.7600 n         1 MOL     -0.366906
     42 C13         4.7200    3.0770    2.8850 c3        1 MOL      0.069091
     43 C14         5.7530    2.0210    2.4760 c         1 MOL      0.378417
     44 O6          6.6690    1.7200    3.2580 o         1 MOL     -0.521942
     45 C15         3.8910    2.4640    4.0400 c3        1 MOL     -0.253736
     46 C16         2.8140    1.3940    3.7420 c         1 MOL      0.755438
     47 O7          2.0390    1.2050    4.7060 o         1 MOL     -0.700919
     48 O8          2.5870    0.9100    2.5900 o         1 MOL     -0.700919
     49 H21         3.2230    2.9600    1.3510 hn        1 MOL      0.198372
     50 H22         5.3100    3.9050    3.2760 h1        1 MOL      0.091283
     51 H23         3.4090    3.3490    4.4330 hc        1 MOL      0.070139
     52 H24         4.5060    2.1810    4.8990 hc        1 MOL      0.070139
     53 N5          5.6830    1.5540    1.2160 n         1 MOL     -0.096769
     54 C17         6.7470    0.7220    0.4970 c3        1 MOL     -0.343122
     55 C18         6.9560   -0.5910    1.2480 c         1 MOL      0.578936
     56 O9          8.0890   -1.0470    1.4020 o         1 MOL     -0.599383
     57 H25         4.7840    1.6930    0.7820 hn        1 MOL      0.029678
     58 H26         7.6680    1.3000    0.5670 h1        1 MOL      0.156625
     59 H27         6.4290    0.5100   -0.5300 h1        1 MOL      0.156625
     60 N6          5.8870   -1.2560    1.5820 n         1 MOL     -0.181068
     61 C19         5.9940   -2.5530    2.1050 c3        1 MOL     -0.058321
     62 C20         6.1530   -3.5950    1.0160 c         1 MOL      0.446506
     63 O10         6.3260   -4.7560    1.2850 o         1 MOL     -0.533517
     64 C21         4.8100   -2.9080    2.9620 c3        1 MOL     -0.228070
     65 C22         3.4500   -2.6570    2.3370 c         1 MOL      0.704902
     66 O11         3.3460   -2.8260    1.1300 o         1 MOL     -0.709047
     67 O12         2.3560   -2.4590    2.9670 o         1 MOL     -0.709047
     68 H28         5.0030   -0.9360    1.1950 hn        1 MOL      0.158502
     69 H29         6.8830   -2.4820    2.7340 h1        1 MOL      0.135332
     70 H30         4.8460   -2.2580    3.8370 hc        1 MOL      0.075370
     71 H31         4.9510   -3.9160    3.3600 hc        1 MOL      0.075370
     72 N7          6.1690   -3.2410   -0.2540 n         1 MOL     -0.280290
     73 C23         6.1640   -4.2020   -1.3600 c3        1 MOL     -0.007987
     74 C24         4.8280   -4.9130   -1.6660 c         1 MOL      0.510580
     75 O13         4.7730   -5.9700   -2.2550 o         1 MOL     -0.554587
     76 H32         5.9190   -2.2840   -0.4770 hn        1 MOL      0.249763
     77 H33         6.9470   -4.9620   -1.3490 h1        1 MOL      0.044936
     78 H34         6.3690   -3.6250   -2.2620 h1        1 MOL      0.044936
     79 N8          3.7550   -4.2910   -1.1540 n         1 MOL     -0.260876
     80 C25         2.3800   -4.7170   -1.4320 c3        1 MOL     -0.145355
     81 C26         1.3850   -3.5460   -1.4800 c         1 MOL      0.717411
     82 O14         1.6570   -2.3800   -1.1630 o         1 MOL     -0.665412
     83 C27         1.9180   -5.6800   -0.3850 c3        1 MOL      0.392828
     84 C28         2.4590   -7.0700   -0.3510 c3        1 MOL     -0.488390
     85 O15         2.2350   -5.2310    0.8900 oh        1 MOL     -0.614762
     86 H35         3.9600   -3.4000   -0.7090 hn        1 MOL      0.259376
     87 H36         2.3830   -5.3410   -2.3270 h1        1 MOL      0.087207
     88 H37         0.8280   -5.6950   -0.4650 h1        1 MOL      0.010673
     89 H38         2.7750   -4.4330    0.8160 ho        1 MOL      0.465797
     90 H39         1.8380   -7.6560    0.3300 hc        1 MOL      0.127098
     91 H40         2.2830   -7.6520   -1.2560 hc        1 MOL      0.127098
     92 H41         3.5270   -7.0280   -0.1460 hc        1 MOL      0.127098
     93 N9          0.1900   -3.7430   -2.0540 n         1 MOL     -0.679353
     94 C29        -0.9810   -2.8550   -2.2020 c3        1 MOL      0.102839
     95 C30        -2.1630   -3.4380   -1.4620 c         1 MOL      0.450091
     96 O16        -2.3790   -4.6210   -1.2990 o         1 MOL     -0.538040
     97 C31        -1.1960   -2.4390   -3.6290 c3        1 MOL      0.305645
     98 C32         0.0290   -1.5660   -4.0640 c3        1 MOL      0.040827
     99 C33        -2.3940   -1.4700   -3.6840 c3        1 MOL     -0.614501
    100 C34         0.0580   -1.5710   -5.5940 c3        1 MOL     -0.070927
    101 H42        -0.0150   -4.7220   -2.1890 hn        1 MOL      0.292126
    102 H43        -0.8320   -1.9400   -1.6130 h1        1 MOL      0.012783
    103 H44        -1.3350   -3.2650   -4.3110 hc        1 MOL     -0.001340
    104 H45         0.9100   -2.1310   -3.7480 hc        1 MOL      0.018305
    105 H46        -0.0430   -0.5850   -3.5780 hc        1 MOL      0.018305
    106 H47        -2.2870   -0.6430   -2.9930 hc        1 MOL      0.105944
    107 H48        -2.5230   -0.9800   -4.6590 hc        1 MOL      0.105944
    108 H49        -3.3080   -2.0250   -3.4780 hc        1 MOL      0.105944
    109 H50        -0.8230   -1.1250   -6.0620 hc        1 MOL      0.007930
    110 H51         0.9060   -1.0390   -6.0180 hc        1 MOL      0.007930
    111 H52         0.2180   -2.5940   -5.9380 hc        1 MOL      0.007930
    112 N10        -3.0010   -2.5510   -0.9490 n         1 MOL     -0.251542
    113 C35        -4.2260   -2.9140   -0.1530 c3        1 MOL     -0.039020
    114 C36        -5.5850   -2.2210   -0.6240 c         1 MOL      0.271714
    115 O17        -5.5350   -1.3860   -1.5190 o         1 MOL     -0.378150
    116 C37        -4.0130   -2.3700    1.3090 c3        1 MOL      0.089800
    117 C38        -2.8380   -2.9020    2.1030 c3        1 MOL     -0.266968
    118 O18        -3.7460   -0.9290    1.1510 oh        1 MOL     -0.537690
    119 H53        -2.8230   -1.5700   -1.0510 hn        1 MOL      0.464610
    120 H54        -4.3820   -3.9890   -0.1690 h1        1 MOL      0.098103
    121 H55        -4.9200   -2.5390    1.8950 h1        1 MOL      0.038088
    122 H56        -2.8020   -0.8280    1.0240 ho        1 MOL      0.306580
    123 H57        -3.0260   -3.9320    2.4000 hc        1 MOL      0.091423
    124 H58        -1.9410   -2.8340    1.4900 hc        1 MOL      0.091423
    125 H59        -2.6890   -2.3660    3.0320 hc        1 MOL      0.091423
    126 N11        -6.6980   -2.5100    0.0280 n         1 MOL     -0.125141
    127 C39        -7.9600   -1.8410   -0.3160 c3        1 MOL     -0.243570
    128 C40        -8.0410   -0.3860    0.0770 c         1 MOL      0.379791
    129 O19        -8.5530    0.3830   -0.7520 o         1 MOL     -0.462872
    130 C41        -9.1120   -2.5470    0.4230 c3        1 MOL      0.286235
    131 C42        -9.2770   -3.9990   -0.1830 c3        1 MOL     -0.398979
    132 O20        -8.7540   -2.7170    1.7290 oh        1 MOL     -0.644685
    133 H60        -6.8200   -3.3720    0.5320 hn        1 MOL      0.240351
    134 H61        -8.0690   -1.9030   -1.3980 h1        1 MOL      0.169690
    135 H62       -10.0870   -2.0610    0.3370 h1        1 MOL      0.074996
    136 H63        -9.4220   -3.3000    2.0970 ho        1 MOL      0.430746
    137 H64        -8.5830   -4.7650    0.1600 hc        1 MOL      0.107373
    138 H65       -10.3090   -4.2690    0.0330 hc        1 MOL      0.107373
    139 H66        -9.2360   -3.8490   -1.2590 hc        1 MOL      0.107373
    140 N12        -7.4240    0.0160    1.2330 n         1 MOL     -0.231370
    141 C43        -7.1650    1.4250    1.5860 c3        1 MOL     -0.042383
    142 C44        -6.3650    2.0650    0.4590 c         1 MOL      0.225723
    143 O21        -6.6910    3.1910    0.0780 o         1 MOL     -0.499478
    144 C45        -6.3390    1.4580    2.9010 c3        1 MOL      0.006333
    145 C46        -6.0410    2.8940    3.4490 c3        1 MOL     -0.047628
    146 C47        -5.4410    2.7320    4.8440 c3        1 MOL     -0.126140
    147 C48        -5.0520    3.9990    5.6480 c3        1 MOL      0.177996
    148 N13        -4.4970    3.7670    7.0010 n4        1 MOL     -0.477782
    149 H67        -7.2890   -0.7410    1.8950 hn        1 MOL      0.221403
    150 H68        -8.1010    1.9630    1.7460 h1        1 MOL      0.099092
    151 H69        -5.3980    0.9770    2.6440 hc        1 MOL      0.005356
    152 H70        -6.9510    0.8700    3.5930 hc        1 MOL      0.005356
    153 H71        -6.9560    3.4730    3.5630 hc        1 MOL      0.047472
    154 H72        -5.3690    3.4140    2.7700 hc        1 MOL      0.047472
    155 H73        -4.5480    2.1070    4.7220 hc        1 MOL      0.052275
    156 H74        -6.2800    2.2260    5.3210 hc        1 MOL      0.052275
    157 H75        -6.0100    4.5150    5.7020 hx        1 MOL      0.058074
    158 H76        -4.4020    4.7060    5.1320 hx        1 MOL      0.058074
    159 H77        -3.5700    3.4070    6.8520 hn        1 MOL      0.358972
    160 H78        -4.4820    4.6430    7.4990 hn        1 MOL      0.358972
    161 H79        -5.0220    3.1620    7.6080 hn        1 MOL      0.358972
    162 N14        -5.2780    1.4370    0.0640 n         1 MOL      0.289781
    163 C49        -4.3780    2.1390   -0.9020 c3        1 MOL     -0.393377
    164 C50        -4.9540    2.2690   -2.2850 c         1 MOL      0.500878
    165 O22        -4.7060    3.2880   -2.9120 o         1 MOL     -0.545091
    166 C51        -3.1110    1.3710   -0.9800 c3        1 MOL      0.162233
    167 C52        -2.2370    1.8070    0.2000 c3        1 MOL     -0.322222
    168 C53        -0.9390    0.9710    0.3350 c         1 MOL      0.750537
    169 O23        -1.0870   -0.2730    0.3740 o         1 MOL     -0.762324
    170 O24         0.2010    1.4730    0.3210 o         1 MOL     -0.762324
    171 H80        -4.9480    0.6240    0.5730 hn        1 MOL      0.146505
    172 H81        -4.1560    3.1460   -0.5630 h1        1 MOL      0.136841
    173 H82        -2.6210    1.6480   -1.9050 hc        1 MOL      0.043141
    174 H83        -3.1360    0.2860   -1.0430 hc        1 MOL      0.043141
    175 H84        -2.8320    1.8270    1.1080 hc        1 MOL      0.062123
    176 H85        -2.0540    2.8610   -0.0140 hc        1 MOL      0.062123
    177 N15        -5.6890    1.2160   -2.7070 n         1 MOL     -0.131662
    178 C54        -6.4610    1.3360   -3.9930 c3        1 MOL     -0.393127
    179 H86        -7.1430    0.4900   -4.0880 h1        1 MOL      0.143280
    180 H87        -7.0330    2.2640   -3.9890 h1        1 MOL      0.143280
    181 H88        -5.7680    1.3390   -4.8350 h1        1 MOL      0.143280
    182 H89        -5.7230    0.3800   -2.1330 hn        1 MOL      0.123910
    183 Ca1         1.3980   -0.9050    0.9880 Ca        1 MOL      1.777874
    184 O25         0.3360   -3.4030    1.2850 oh        1 MOL     -0.816031
    185 H90         0.8670   -4.1840    1.1480 ho        1 MOL      0.374447
    186 H91         0.0140   -3.4830    2.1790 ho        1 MOL      0.374447
    187 O26         0.1140   -0.2490    3.2710 oh        1 MOL     -0.816031
    188 H92         0.6030    0.3820    3.7940 ho        1 MOL      0.374447
    189 H93        -0.7860    0.0890    3.2530 ho        1 MOL      0.374447
@<TRIPOS>BOND
     1    1    2 1   
     2    1    4 1   
     3    1    5 1   
     4    1    6 1   
     5    2    3 2   
     6    2    7 1   
     7    7    8 1   
     8    7   15 1   
     9    8    9 1   
    10    8   11 1   
    11    8   16 1   
    12    9   10 2   
    13    9   19 1   
    14   11   12 1   
    15   11   17 1   
    16   11   18 1   
    17   12   13 1   
    18   12   14 1   
    19   19   20 1   
    20   19   28 1   
    21   20   21 1   
    22   20   23 1   
    23   20   29 1   
    24   21   22 2   
    25   21   41 1   
    26   23   24 1   
    27   23   30 1   
    28   23   31 1   
    29   24   25 1   
    30   24   32 1   
    31   24   33 1   
    32   25   26 1   
    33   25   34 1   
    34   25   35 1   
    35   26   27 1   
    36   26   36 1   
    37   26   37 1   
    38   27   38 1   
    39   27   39 1   
    40   27   40 1   
    41   41   42 1   
    42   41   49 1   
    43   42   43 1   
    44   42   45 1   
    45   42   50 1   
    46   43   44 2   
    47   43   53 1   
    48   45   46 1   
    49   45   51 1   
    50   45   52 1   
    51   46   47 1   
    52   46   48 1   
    53   53   54 1   
    54   53   57 1   
    55   54   55 1   
    56   54   58 1   
    57   54   59 1   
    58   55   56 2   
    59   55   60 1   
    60   60   61 1   
    61   60   68 1   
    62   61   62 1   
    63   61   64 1   
    64   61   69 1   
    65   62   63 2   
    66   62   72 1   
    67   64   65 1   
    68   64   70 1   
    69   64   71 1   
    70   65   66 1   
    71   65   67 1   
    72   72   73 1   
    73   72   76 1   
    74   73   74 1   
    75   73   77 1   
    76   73   78 1   
    77   74   75 2   
    78   74   79 1   
    79   79   80 1   
    80   79   86 1   
    81   80   81 1   
    82   80   83 1   
    83   80   87 1   
    84   81   82 2   
    85   81   93 1   
    86   83   84 1   
    87   83   85 1   
    88   83   88 1   
    89   84   90 1   
    90   84   91 1   
    91   84   92 1   
    92   85   89 1   
    93   93   94 1   
    94   93  101 1   
    95   94   95 1   
    96   94   97 1   
    97   94  102 1   
    98   95   96 2   
    99   95  112 1   
   100   97   98 1   
   101   97   99 1   
   102   97  103 1   
   103   98  100 1   
   104   98  104 1   
   105   98  105 1   
   106   99  106 1   
   107   99  107 1   
   108   99  108 1   
   109  100  109 1   
   110  100  110 1   
   111  100  111 1   
   112  112  113 1   
   113  112  119 1   
   114  113  114 1   
   115  113  116 1   
   116  113  120 1   
   117  114  115 2   
   118  114  126 1   
   119  116  117 1   
   120  116  118 1   
   121  116  121 1   
   122  117  123 1   
   123  117  124 1   
   124  117  125 1   
   125  118  122 1   
   126  126  127 1   
   127  126  133 1   
   128  127  128 1   
   129  127  130 1   
   130  127  134 1   
   131  128  129 2   
   132  128  140 1   
   133  130  131 1   
   134  130  132 1   
   135  130  135 1   
   136  131  137 1   
   137  131  138 1   
   138  131  139 1   
   139  132  136 1   
   140  140  141 1   
   141  140  149 1   
   142  141  142 1   
   143  141  144 1   
   144  141  150 1   
   145  142  143 2   
   146  142  162 1   
   147  144  145 1   
   148  144  151 1   
   149  144  152 1   
   150  145  146 1   
   151  145  153 1   
   152  145  154 1   
   153  146  147 1   
   154  146  155 1   
   155  146  156 1   
   156  147  148 1   
   157  147  157 1   
   158  147  158 1   
   159  148  159 1   
   160  148  160 1   
   161  148  161 1   
   162  162  163 1   
   163  162  171 1   
   164  163  164 1   
   165  163  166 1   
   166  163  172 1   
   167  164  165 2   
   168  164  177 1   
   169  166  167 1   
   170  166  173 1   
   171  166  174 1   
   172  167  168 1   
   173  167  175 1   
   174  167  176 1   
   175  168  169 1   
   176  168  170 1   
   177  177  178 1   
   178  177  182 1   
   179  178  179 1   
   180  178  180 1   
   181  178  181 1   
   182  184  185 1   
   183  184  186 1   
   184  187  188 1   
   185  187  189 1   
@<TRIPOS>SUBSTRUCTURE
     1 MOL         1 TEMP              0 ****  ****    0 ROOT
