@<TRIPOS>MOLECULE
MOL
  183   181     1     0     0
SMALL
resp


@<TRIPOS>ATOM
      1 C1         -0.3160    1.6710    6.0680 c3        1 MOL     -0.223650
      2 C2         -0.7610    1.8370    4.6200 c         1 MOL      0.737115
      3 O1         -0.0510    2.5800    3.8730 o         1 MOL     -0.574444
      4 H1          0.6510    2.1540    6.2080 hc        1 MOL      0.047605
      5 H2         -1.0500    2.1330    6.7280 hc        1 MOL      0.047605
      6 H3         -0.2300    0.6110    6.3030 hc        1 MOL      0.047605
      7 N1         -1.8680    1.2180    4.2210 n         1 MOL     -0.682250
      8 C3         -2.5080    1.3420    2.8940 c3        1 MOL      0.343219
      9 C4         -2.7490    2.8150    2.5570 c         1 MOL      0.539821
     10 O2         -3.2170    3.5940    3.3630 o         1 MOL     -0.591991
     11 C5         -3.7790    0.4350    2.7800 c3        1 MOL     -0.360418
     12 C6         -4.4800    0.3960    1.5160 c         1 MOL      0.797579
     13 O3         -5.6260   -0.0180    1.5030 o         1 MOL     -0.562048
     14 O4         -3.9210    0.8420    0.4520 o         1 MOL     -0.562048
     15 H4         -2.4700    0.8150    4.9300 hn        1 MOL      0.311611
     16 H5         -1.7970    0.9800    2.1490 h1        1 MOL     -0.018733
     17 H6         -4.5280    0.6760    3.5340 hc        1 MOL      0.077332
     18 H7         -3.4680   -0.5680    3.0800 hc        1 MOL      0.077332
     19 N2         -2.4770    3.1620    1.2640 n         1 MOL     -0.437176
     20 C7         -2.8240    4.5400    0.7150 c3        1 MOL      0.036067
     21 C8         -4.0230    4.4680   -0.3010 c         1 MOL      0.440459
     22 O5         -4.7310    5.4210   -0.4600 o         1 MOL     -0.570711
     23 C9         -1.5970    5.2700    0.2470 c3        1 MOL      0.285940
     24 C10        -0.6830    5.7090    1.4100 c3        1 MOL      0.023188
     25 C11        -2.0340    6.4800   -0.5190 c3        1 MOL     -0.376940
     26 C12         0.7680    5.9490    0.8520 c3        1 MOL      0.108371
     27 H8         -2.1460    2.4680    0.6060 hn        1 MOL      0.211834
     28 H9         -3.1620    5.1150    1.5780 h1        1 MOL      0.047721
     29 H10        -0.9830    4.5780   -0.3440 hc        1 MOL     -0.006632
     30 H11        -0.6150    4.8170    2.0250 hc        1 MOL     -0.023570
     31 H12        -1.0420    6.5850    1.9460 hc        1 MOL     -0.023570
     32 H13        -2.7060    7.0670    0.1160 hc        1 MOL      0.073052
     33 H14        -1.1510    7.0580   -0.7930 hc        1 MOL      0.073052
     34 H15        -2.4800    6.2960   -1.5020 hc        1 MOL      0.073052
     35 H16         1.3140    6.4120    1.6800 hc        1 MOL     -0.050667
     36 H17         1.2080    5.0120    0.4950 hc        1 MOL     -0.050667
     37 H18         0.7530    6.7530    0.1300 hc        1 MOL     -0.050667
     38 N3         -4.3420    3.2610   -0.7900 n         1 MOL     -0.104777
     39 C13        -5.3980    3.0890   -1.7410 c3        1 MOL     -0.133785
     40 C14        -6.7540    2.8190   -1.1840 c         1 MOL      0.447458
     41 O6         -7.7270    3.2580   -1.8130 o         1 MOL     -0.542190
     42 C15        -5.1260    1.9380   -2.7170 c3        1 MOL     -0.024266
     43 C16        -3.7710    2.0020   -3.3560 c         1 MOL      0.705045
     44 O7         -2.7280    1.6120   -2.8000 o         1 MOL     -0.684886
     45 O8         -3.7010    2.6900   -4.4140 o         1 MOL     -0.684886
     46 H19        -3.8290    2.5040   -0.3600 hn        1 MOL      0.064477
     47 H20        -5.3590    3.9800   -2.3680 h1        1 MOL      0.125134
     48 H21        -5.8640    2.0460   -3.5120 hc        1 MOL     -0.003051
     49 H22        -5.1760    0.9950   -2.1580 hc        1 MOL     -0.003051
     50 N4         -6.9090    2.1350   -0.0340 n         1 MOL     -0.145320
     51 C17        -8.1350    1.5350    0.4860 c3        1 MOL     -0.338583
     52 C18        -8.4040    0.2360   -0.2570 c         1 MOL      0.576542
     53 O9         -9.5710   -0.1140   -0.5590 o         1 MOL     -0.605054
     54 H23        -6.1040    1.7960    0.4700 hn        1 MOL      0.111464
     55 H24        -8.8570    2.2910    0.1770 h1        1 MOL      0.132422
     56 H25        -8.0420    1.4490    1.5630 h1        1 MOL      0.132422
     57 N5         -7.3400   -0.5800   -0.5700 n         1 MOL     -0.147782
     58 C19        -7.4130   -1.9940   -1.0940 c3        1 MOL     -0.168274
     59 C20        -7.0190   -3.0350   -0.0420 c         1 MOL      0.453400
     60 O10        -7.1890   -4.2420   -0.3530 o         1 MOL     -0.567689
     61 C21        -6.4660   -2.1260   -2.3050 c3        1 MOL     -0.022971
     62 C22        -5.0750   -1.6610   -2.1710 c         1 MOL      0.623394
     63 O11        -4.5070   -1.0510   -3.1020 o         1 MOL     -0.676425
     64 O12        -4.5150   -1.9230   -1.0640 o         1 MOL     -0.676425
     65 H26        -6.4460   -0.2300   -0.2580 hn        1 MOL      0.086299
     66 H27        -8.4630   -2.1150   -1.3700 h1        1 MOL      0.129021
     67 H28        -6.9060   -1.6220   -3.1670 hc        1 MOL      0.023448
     68 H29        -6.4020   -3.1630   -2.6330 hc        1 MOL      0.023448
     69 N6         -6.6530   -2.6220    1.1650 n         1 MOL     -0.181206
     70 C23        -6.2170   -3.3960    2.3640 c3        1 MOL     -0.151222
     71 C24        -4.8610   -4.1080    2.3020 c         1 MOL      0.642000
     72 O13        -4.4490   -4.5710    3.2970 o         1 MOL     -0.600101
     73 H30        -6.3980   -1.6500    1.2760 hn        1 MOL      0.129436
     74 H31        -7.0270   -4.0840    2.5810 h1        1 MOL      0.068862
     75 H32        -6.0650   -2.6070    3.0950 h1        1 MOL      0.068862
     76 N7         -4.1420   -3.9230    1.1880 n         1 MOL     -0.261004
     77 C25        -2.7120   -4.4390    1.0830 c3        1 MOL      0.023272
     78 C26        -1.6670   -3.3470    1.1570 c         1 MOL      0.707571
     79 O14        -1.8710   -2.1810    0.7340 o         1 MOL     -0.732515
     80 C27        -2.6610   -5.4210   -0.1490 c3        1 MOL     -0.236471
     81 C28        -3.0560   -4.8910   -1.5380 c3        1 MOL     -0.139363
     82 C29        -1.8630   -4.0720   -2.2080 c         1 MOL      0.522009
     83 N8         -0.8900   -4.6480   -2.8460 n         1 MOL     -0.690947
     84 O15        -1.9400   -2.8450   -2.2600 o         1 MOL     -0.444234
     85 H33        -4.5200   -3.3590    0.4370 hn        1 MOL      0.138587
     86 H34        -2.5990   -5.0860    1.9530 h1        1 MOL      0.038717
     87 H35        -3.4340   -6.1240    0.1640 hc        1 MOL      0.057803
     88 H36        -1.6510   -5.8040   -0.2950 hc        1 MOL      0.057803
     89 H37        -3.9450   -4.2730   -1.5760 hc        1 MOL      0.094937
     90 H38        -3.3640   -5.6750   -2.2290 hc        1 MOL      0.094937
     91 H39        -0.7280   -5.6290   -2.6530 hn        1 MOL      0.319530
     92 H40        -0.1350   -4.0810   -3.1850 hn        1 MOL      0.319530
     93 N9         -0.4890   -3.7750    1.5990 n         1 MOL     -0.434542
     94 C30         0.6460   -2.9280    1.9690 c3        1 MOL      0.037116
     95 C31         1.8980   -3.1440    1.1060 c         1 MOL      0.409277
     96 O16         2.5210   -4.1640    1.1680 o         1 MOL     -0.554152
     97 C32         0.9430   -2.9290    3.4340 c3        1 MOL      0.171672
     98 C33         2.1240   -2.0100    3.9300 c3        1 MOL     -0.321118
     99 C34        -0.2740   -2.4890    4.2390 c3        1 MOL     -0.321118
    100 H41        -0.4450   -4.7410    1.8840 hn        1 MOL      0.265302
    101 H42         0.3650   -1.9020    1.7470 h1        1 MOL      0.164215
    102 H43         1.1440   -3.9700    3.6890 hc        1 MOL     -0.011933
    103 H44         1.9310   -0.9800    3.6060 hc        1 MOL      0.076346
    104 H45         2.2930   -1.9840    5.0110 hc        1 MOL      0.076346
    105 H46         2.9770   -2.4070    3.3980 hc        1 MOL      0.076346
    106 H47        -0.6760   -1.5340    3.9000 hc        1 MOL      0.076346
    107 H48        -1.1610   -3.1100    4.0670 hc        1 MOL      0.076346
    108 H49        -0.0060   -2.6200    5.2870 hc        1 MOL      0.076346
    109 N10         2.2280   -2.2170    0.1950 n         1 MOL     -0.025359
    110 C35         3.3060   -2.2850   -0.6230 c3        1 MOL      0.059788
    111 C36         4.5940   -1.7030    0.0410 c         1 MOL      0.500474
    112 O17         4.5750   -0.9390    0.9920 o         1 MOL     -0.380131
    113 C37         3.1280   -1.7490   -2.0490 c3        1 MOL     -0.356590
    114 C38         2.2350   -2.6570   -2.8570 c         1 MOL      0.756191
    115 N11         2.5830   -3.8180   -3.2130 n         1 MOL     -0.768222
    116 O18         1.1030   -2.3690   -3.1690 o         1 MOL     -0.526596
    117 H50         1.5190   -1.5220    0.0050 hn        1 MOL      0.042209
    118 H51         3.6450   -3.3220   -0.6560 h1        1 MOL     -0.006574
    119 H52         4.0600   -1.7340   -2.6060 hc        1 MOL      0.082823
    120 H53         2.8400   -0.6920   -2.0160 hc        1 MOL      0.082823
    121 H54         3.5550   -4.0710   -3.2440 hn        1 MOL      0.344775
    122 H55         2.0740   -4.2950   -3.9450 hn        1 MOL      0.344775
    123 N12         5.7820   -2.0510   -0.5140 n         1 MOL     -0.566528
    124 C39         7.0140   -1.4980   -0.0280 c3        1 MOL      0.281177
    125 C40         7.0130   -0.0060   -0.2600 c         1 MOL      0.507481
    126 O19         7.3640    0.7590    0.6230 o         1 MOL     -0.562788
    127 C41         8.1820   -2.2060   -0.6760 c3        1 MOL     -0.270133
    128 C42         9.5800   -1.6490   -0.2300 ca        1 MOL      0.169109
    129 C43        10.0670   -1.7160    1.0770 ca        1 MOL     -0.288585
    130 C44        10.3550   -1.0610   -1.2370 ca        1 MOL     -0.288585
    131 C45        11.3800   -1.1440    1.3720 ca        1 MOL     -0.147644
    132 C46        11.5800   -0.4270   -0.9350 ca        1 MOL     -0.147644
    133 C47        12.1040   -0.5360    0.3580 ca        1 MOL      0.256370
    134 O20        13.3720   -0.0930    0.6090 oh        1 MOL     -0.506398
    135 H56         5.7960   -2.7220   -1.2710 hn        1 MOL      0.285505
    136 H57         6.9200   -1.6050    1.0550 h1        1 MOL      0.052563
    137 H58         8.0380   -2.1310   -1.7550 hc        1 MOL      0.068875
    138 H59         8.0740   -3.2540   -0.3880 hc        1 MOL      0.068875
    139 H60         9.5610   -2.2370    1.8740 ha        1 MOL      0.158687
    140 H61         9.9220   -1.0530   -2.2270 ha        1 MOL      0.158687
    141 H62        11.8770   -1.2180    2.3270 ha        1 MOL      0.121417
    142 H63        12.1220    0.0870   -1.7100 ha        1 MOL      0.121417
    143 H64        13.5720    0.5470   -0.0700 ho        1 MOL      0.359958
    144 N13         6.4870    0.5220   -1.3490 n         1 MOL     -0.328020
    145 C48         6.1930    1.9460   -1.5550 c3        1 MOL      0.014183
    146 C49         5.1790    2.6110   -0.6170 c         1 MOL      0.338126
    147 O21         5.1040    3.8630   -0.6420 o         1 MOL     -0.478878
    148 C50         5.8620    2.1580   -2.9700 c3        1 MOL     -0.222659
    149 C51         4.5410    1.6250   -3.5150 c3        1 MOL      0.040017
    150 C52         4.0960    2.0200   -4.9260 c         1 MOL      0.677660
    151 O22         4.9800    2.0480   -5.7710 o         1 MOL     -0.720721
    152 O23         2.8800    2.1430   -5.2450 o         1 MOL     -0.720721
    153 H65         6.4080   -0.0870   -2.1530 hn        1 MOL      0.250721
    154 H66         7.1870    2.3850   -1.4410 h1        1 MOL      0.072729
    155 H67         6.6180    1.7870   -3.6480 hc        1 MOL      0.054525
    156 H68         5.7340    3.2430   -2.9610 hc        1 MOL      0.054525
    157 H69         3.7820    1.8560   -2.7620 hc        1 MOL     -0.044040
    158 H70         4.5470    0.5380   -3.5350 hc        1 MOL     -0.044040
    159 N14         4.3980    1.7630    0.1060 n         1 MOL     -0.057908
    160 C53         3.5980    2.3220    1.1930 c3        1 MOL     -0.087649
    161 C54         4.3040    2.2670    2.5680 c         1 MOL      0.381504
    162 O24         4.2340    3.0990    3.5050 o         1 MOL     -0.545296
    163 C55         2.3140    1.5840    1.2480 c3        1 MOL      0.555235
    164 C56         1.5830    1.6800   -0.1200 c3        1 MOL     -0.052065
    165 C57         0.2120    1.1400   -0.2790 c         1 MOL      0.630996
    166 O25        -0.8150    1.7850   -0.3900 o         1 MOL     -0.663524
    167 O26         0.0650   -0.1030   -0.3160 o         1 MOL     -0.663524
    168 H71         4.4580    0.7660    0.0220 hn        1 MOL      0.104249
    169 H72         3.3390    3.3750    1.0770 h1        1 MOL      0.073958
    170 H73         1.6400    2.0710    1.9500 hc        1 MOL     -0.156663
    171 H74         2.3800    0.5540    1.5800 hc        1 MOL     -0.156663
    172 H75         2.1620    1.1100   -0.8350 hc        1 MOL      0.014238
    173 H76         1.5730    2.7170   -0.4700 hc        1 MOL      0.014238
    174 N15         5.1830    1.2830    2.7150 n         1 MOL     -0.027693
    175 C58         5.8440    0.9690    3.9940 c3        1 MOL     -0.403622
    176 H77         6.7810    1.5230    4.0640 h1        1 MOL      0.130250
    177 H78         5.1930    1.2530    4.8200 h1        1 MOL      0.130250
    178 H79         6.0510   -0.1000    4.0450 h1        1 MOL      0.130250
    179 H80         5.1900    0.5240    2.0430 hn        1 MOL      0.067958
    180 Ca1        -2.4070   -0.3920   -1.2540 Ca        1 MOL      1.657048
    181 O27        -0.6860   -0.5510   -3.3940 oh        1 MOL     -0.895603
    182 H81        -0.1300   -1.3080   -3.2040 ho        1 MOL      0.423449
    183 H82        -0.1320    0.0250   -3.9140 ho        1 MOL      0.423449
@<TRIPOS>BOND
     1    1    2 1   
     2    1    4 1   
     3    1    5 1   
     4    1    6 1   
     5    2    3 2   
     6    2    7 1   
     7    7    8 1   
     8    7   15 1   
     9    8    9 1   
    10    8   11 1   
    11    8   16 1   
    12    9   10 2   
    13    9   19 1   
    14   11   12 1   
    15   11   17 1   
    16   11   18 1   
    17   12   13 1   
    18   12   14 1   
    19   19   20 1   
    20   19   27 1   
    21   20   21 1   
    22   20   23 1   
    23   20   28 1   
    24   21   22 2   
    25   21   38 1   
    26   23   24 1   
    27   23   25 1   
    28   23   29 1   
    29   24   26 1   
    30   24   30 1   
    31   24   31 1   
    32   25   32 1   
    33   25   33 1   
    34   25   34 1   
    35   26   35 1   
    36   26   36 1   
    37   26   37 1   
    38   38   39 1   
    39   38   46 1   
    40   39   40 1   
    41   39   42 1   
    42   39   47 1   
    43   40   41 2   
    44   40   50 1   
    45   42   43 1   
    46   42   48 1   
    47   42   49 1   
    48   43   44 1   
    49   43   45 1   
    50   50   51 1   
    51   50   54 1   
    52   51   52 1   
    53   51   55 1   
    54   51   56 1   
    55   52   53 2   
    56   52   57 1   
    57   57   58 1   
    58   57   65 1   
    59   58   59 1   
    60   58   61 1   
    61   58   66 1   
    62   59   60 2   
    63   59   69 1   
    64   61   62 1   
    65   61   67 1   
    66   61   68 1   
    67   62   63 1   
    68   62   64 1   
    69   69   70 1   
    70   69   73 1   
    71   70   71 1   
    72   70   74 1   
    73   70   75 1   
    74   71   72 2   
    75   71   76 1   
    76   76   77 1   
    77   76   85 1   
    78   77   78 1   
    79   77   80 1   
    80   77   86 1   
    81   78   79 2   
    82   78   93 1   
    83   80   81 1   
    84   80   87 1   
    85   80   88 1   
    86   81   82 1   
    87   81   89 1   
    88   81   90 1   
    89   82   83 1   
    90   82   84 2   
    91   83   91 1   
    92   83   92 1   
    93   93   94 1   
    94   93  100 1   
    95   94   95 1   
    96   94   97 1   
    97   94  101 1   
    98   95   96 2   
    99   95  109 1   
   100   97   98 1   
   101   97   99 1   
   102   97  102 1   
   103   98  103 1   
   104   98  104 1   
   105   98  105 1   
   106   99  106 1   
   107   99  107 1   
   108   99  108 1   
   109  109  110 1   
   110  109  117 1   
   111  110  111 1   
   112  110  113 1   
   113  110  118 1   
   114  111  112 2   
   115  111  123 1   
   116  113  114 1   
   117  113  119 1   
   118  113  120 1   
   119  114  115 1   
   120  114  116 2   
   121  115  121 1   
   122  115  122 1   
   123  123  124 1   
   124  123  135 1   
   125  124  125 1   
   126  124  127 1   
   127  124  136 1   
   128  125  126 2   
   129  125  144 1   
   130  127  128 1   
   131  127  137 1   
   132  127  138 1   
   133  128  129 ar  
   134  128  130 ar  
   135  129  131 ar  
   136  129  139 1   
   137  130  132 ar  
   138  130  140 1   
   139  131  133 ar  
   140  131  141 1   
   141  132  133 ar  
   142  132  142 1   
   143  133  134 1   
   144  134  143 1   
   145  144  145 1   
   146  144  153 1   
   147  145  146 1   
   148  145  148 1   
   149  145  154 1   
   150  146  147 2   
   151  146  159 1   
   152  148  149 1   
   153  148  155 1   
   154  148  156 1   
   155  149  150 1   
   156  149  157 1   
   157  149  158 1   
   158  150  151 1   
   159  150  152 1   
   160  159  160 1   
   161  159  168 1   
   162  160  161 1   
   163  160  163 1   
   164  160  169 1   
   165  161  162 2   
   166  161  174 1   
   167  163  164 1   
   168  163  170 1   
   169  163  171 1   
   170  164  165 1   
   171  164  172 1   
   172  164  173 1   
   173  165  166 1   
   174  165  167 1   
   175  174  175 1   
   176  174  179 1   
   177  175  176 1   
   178  175  177 1   
   179  175  178 1   
   180  181  182 1   
   181  181  183 1   
@<TRIPOS>SUBSTRUCTURE
     1 MOL         1 TEMP              0 ****  ****    0 ROOT
