@<TRIPOS>MOLECULE
MOL
  172   171     1     0     0
SMALL
resp


@<TRIPOS>ATOM
      1 C1          0.4520    3.4740    6.0020 c3        1 MOL     -0.376433
      2 C2          0.1010    3.6120    4.4790 c         1 MOL      0.678292
      3 O1          0.9630    3.8790    3.5820 o         1 MOL     -0.556405
      4 H1         -0.3740    3.8580    6.6010 hc        1 MOL      0.098067
      5 H2          0.6180    2.4240    6.2430 hc        1 MOL      0.098067
      6 H3          1.3540    4.0440    6.2200 hc        1 MOL      0.098067
      7 N1         -1.2030    3.3780    4.1530 n         1 MOL     -0.663997
      8 C3         -1.7360    3.3620    2.7950 c3        1 MOL      0.414571
      9 C4         -1.4200    4.5510    1.8710 c         1 MOL      0.454495
     10 O2         -1.4690    5.6600    2.3900 o         1 MOL     -0.563407
     11 C5         -3.1990    2.9780    2.8930 c3        1 MOL     -0.419902
     12 C6         -3.8280    2.8620    1.5020 c         1 MOL      0.748515
     13 O3         -4.8140    3.5900    1.2590 o         1 MOL     -0.653973
     14 O4         -3.2340    2.1460    0.6640 o         1 MOL     -0.653973
     15 H4         -1.8550    3.2970    4.9100 hn        1 MOL      0.331252
     16 H5         -1.1890    2.5600    2.2970 h1        1 MOL     -0.061906
     17 H6         -3.6520    3.8080    3.4350 hc        1 MOL      0.064849
     18 H7         -3.3120    2.0730    3.4890 hc        1 MOL      0.064849
     19 N2         -1.2490    4.2410    0.5620 n         1 MOL     -0.240008
     20 C7         -1.2650    5.2380   -0.4950 c3        1 MOL      0.260458
     21 C8         -2.0130    4.9540   -1.8090 c         1 MOL      0.500743
     22 O5         -1.9430    5.7110   -2.7320 o         1 MOL     -0.557542
     23 C9          0.1290    5.8220   -0.6260 c3        1 MOL     -0.331287
     24 H8         -1.1730    3.2850    0.2640 hn        1 MOL      0.254373
     25 H9         -1.8570    6.0660   -0.1080 h1        1 MOL      0.014904
     26 H10         0.0420    6.7510   -1.1740 hc        1 MOL      0.069654
     27 H11         0.5410    5.9570    0.3730 hc        1 MOL      0.069654
     28 H12         0.7650    5.0440   -1.0430 hc        1 MOL      0.069654
     29 N3         -2.9310    3.9660   -1.7880 n         1 MOL     -0.270334
     30 C10        -3.7740    3.5740   -2.9250 c3        1 MOL      0.013512
     31 C11        -5.1980    3.0480   -2.5910 c         1 MOL      0.341672
     32 O6         -6.0170    2.7850   -3.4850 o         1 MOL     -0.552860
     33 C12        -3.0340    2.5690   -3.7650 c3        1 MOL     -0.124600
     34 C13        -2.6800    1.2550   -3.0630 c         1 MOL      0.688281
     35 O7         -3.5630    0.8080   -2.2810 o         1 MOL     -0.676393
     36 O8         -1.6080    0.6800   -3.1550 o         1 MOL     -0.676393
     37 H13        -3.1340    3.5610   -0.8910 hn        1 MOL      0.040541
     38 H14        -3.8590    4.4630   -3.5540 h1        1 MOL      0.088160
     39 H15        -2.1410    3.0790   -4.1250 hc        1 MOL      0.035049
     40 H16        -3.5890    2.3330   -4.6670 hc        1 MOL      0.035049
     41 N4         -5.5130    2.7660   -1.3440 n         1 MOL     -0.076503
     42 C14        -6.8290    2.2820   -0.8460 c3        1 MOL     -0.306181
     43 C15        -7.2460    0.8760   -1.2510 c         1 MOL      0.580238
     44 O9         -8.3780    0.4700   -1.1380 o         1 MOL     -0.614549
     45 H17        -4.7970    2.8970   -0.6370 hn        1 MOL      0.162013
     46 H18        -7.6250    2.9370   -1.2150 h1        1 MOL      0.128315
     47 H19        -6.7510    2.3100    0.2360 h1        1 MOL      0.128315
     48 N5         -6.2570    0.0720   -1.6590 n         1 MOL     -0.272597
     49 C16        -6.5130   -1.3540   -2.1320 c3        1 MOL      0.079751
     50 C17        -6.7320   -2.3500   -0.9860 c         1 MOL      0.413474
     51 O10        -7.0260   -3.5130   -1.2920 o         1 MOL     -0.540882
     52 C18        -5.4450   -1.9020   -3.1190 c3        1 MOL     -0.251392
     53 C19        -4.1170   -2.1960   -2.4120 c         1 MOL      0.823830
     54 N6         -3.2170   -2.5640   -3.2330 n         1 MOL     -0.714012
     55 O11        -3.9260   -1.9880   -1.2230 o         1 MOL     -0.805359
     56 H20        -5.3580    0.4420   -1.9140 hn        1 MOL      0.219464
     57 H21        -7.4570   -1.3640   -2.6640 h1        1 MOL      0.083752
     58 H22        -5.1460   -1.1110   -3.8120 hc        1 MOL      0.068197
     59 H23        -5.8220   -2.7800   -3.6490 hc        1 MOL      0.068197
     60 H24        -3.4080   -2.2890   -4.1900 hn        1 MOL      0.343158
     61 H25        -2.2550   -2.7330   -2.9470 hn        1 MOL      0.343158
     62 N7         -6.5800   -1.9500    0.2470 n         1 MOL     -0.210690
     63 C20        -6.8030   -2.7540    1.4650 c3        1 MOL     -0.342820
     64 C21        -5.6390   -3.6540    1.9000 c         1 MOL      0.567625
     65 O12        -5.8810   -4.4450    2.8260 o         1 MOL     -0.595473
     66 H26        -6.2850   -0.9890    0.3500 hn        1 MOL      0.258472
     67 H27        -7.7150   -3.3260    1.3340 h1        1 MOL      0.146817
     68 H28        -6.9080   -2.1380    2.3590 h1        1 MOL      0.146817
     69 N8         -4.5110   -3.6110    1.2110 n         1 MOL     -0.210988
     70 C22        -3.2570   -4.3400    1.4830 c3        1 MOL     -0.286959
     71 C23        -2.0230   -3.3960    1.5200 c         1 MOL      0.548270
     72 O13        -2.0400   -2.4300    0.8290 o         1 MOL     -0.439000
     73 C24        -3.0560   -5.3830    0.3890 c3        1 MOL      0.480702
     74 C25        -4.0560   -6.4980    0.5060 c3        1 MOL     -0.392828
     75 O14        -3.2550   -4.7690   -0.8980 oh        1 MOL     -0.572763
     76 H29        -4.4480   -2.9790    0.4170 hn        1 MOL      0.336750
     77 H30        -3.3670   -4.8290    2.4460 h1        1 MOL      0.104541
     78 H31        -2.0550   -5.8210    0.4310 h1        1 MOL     -0.030092
     79 H32        -2.8670   -3.8870   -0.8780 ho        1 MOL      0.314867
     80 H33        -4.0490   -6.9590    1.4960 hc        1 MOL      0.101975
     81 H34        -5.0550   -6.1010    0.3150 hc        1 MOL      0.101975
     82 H35        -3.9350   -7.3280   -0.1870 hc        1 MOL      0.101975
     83 N9         -0.8960   -3.7240    2.2260 n         1 MOL     -0.463483
     84 C26         0.3760   -2.9190    2.1470 c3        1 MOL     -0.000799
     85 C27         1.1610   -3.1940    0.7770 c         1 MOL      0.513438
     86 O15         1.2530   -4.3100    0.3130 o         1 MOL     -0.555560
     87 C28         1.2610   -3.2230    3.4830 c3        1 MOL      0.031967
     88 C29         0.8410   -2.4830    4.7980 c3        1 MOL      0.026832
     89 C30         2.7760   -3.0000    3.1800 c3        1 MOL     -0.207881
     90 C31         1.1520   -3.2560    6.0240 c3        1 MOL     -0.291801
     91 H36        -0.8880   -4.5920    2.7540 hn        1 MOL      0.274950
     92 H37         0.1630   -1.8480    2.1190 h1        1 MOL      0.047717
     93 H38         1.2100   -4.3020    3.6680 hc        1 MOL      0.045481
     94 H39        -0.2320   -2.2790    4.7950 hc        1 MOL      0.026483
     95 H40         1.3620   -1.5450    4.9460 hc        1 MOL      0.026483
     96 H41         2.9810   -1.9820    2.8450 hc        1 MOL      0.048727
     97 H42         3.3560   -3.1440    4.0840 hc        1 MOL      0.048727
     98 H43         3.1120   -3.7560    2.4580 hc        1 MOL      0.048727
     99 H44         2.2390   -3.2450    6.0570 hc        1 MOL      0.069785
    100 H45         0.8420   -2.7690    6.9520 hc        1 MOL      0.069785
    101 H46         0.7690   -4.2640    5.8410 hc        1 MOL      0.069785
    102 N10         1.6250   -2.1450    0.1040 n         1 MOL     -0.233499
    103 C32         2.4520   -2.1780   -1.0880 c3        1 MOL      0.001145
    104 C33         3.8740   -1.6650   -0.9080 c         1 MOL      0.475658
    105 O16         4.2000   -1.0830    0.0790 o         1 MOL     -0.391398
    106 C34         1.8130   -1.3060   -2.1530 c3        1 MOL     -0.087973
    107 C35         0.4180   -1.8450   -2.6560 c         1 MOL      0.613839
    108 O17        -0.6080   -1.9270   -1.8980 o         1 MOL     -0.629645
    109 O18         0.3780   -2.0420   -3.8500 o         1 MOL     -0.629645
    110 H47         1.3570   -1.2230    0.4020 hn        1 MOL      0.100167
    111 H48         2.4880   -3.2060   -1.4470 h1        1 MOL      0.066754
    112 H49         2.4030   -1.1450   -3.0490 hc        1 MOL      0.038647
    113 H50         1.6640   -0.3240   -1.6980 hc        1 MOL      0.038647
    114 N11         4.7910   -1.8130   -1.8710 n         1 MOL     -0.537738
    115 C36         6.1990   -1.5550   -1.7100 c3        1 MOL      0.235879
    116 C37         6.6170   -0.1720   -1.1010 c         1 MOL      0.460600
    117 O19         7.2720   -0.2340   -0.0910 o         1 MOL     -0.525985
    118 C38         6.9420   -1.9380   -2.9880 c3        1 MOL     -0.111353
    119 C39         8.4310   -1.9210   -2.8080 ca        1 MOL      0.019246
    120 C40         9.0600   -2.9850   -2.2230 ca        1 MOL     -0.116881
    121 C41         9.1410   -0.7390   -3.0920 ca        1 MOL     -0.116881
    122 C42        10.5090   -2.9240   -2.0490 ca        1 MOL     -0.136889
    123 C43        10.5210   -0.6480   -3.0000 ca        1 MOL     -0.136889
    124 C44        11.1910   -1.7690   -2.4820 ca        1 MOL     -0.103407
    125 H51         4.5050   -2.4030   -2.6440 hn        1 MOL      0.283542
    126 H52         6.5560   -2.3190   -1.0240 h1        1 MOL      0.041746
    127 H53         6.7320   -1.1630   -3.7250 hc        1 MOL      0.042332
    128 H54         6.6300   -2.9270   -3.3280 hc        1 MOL      0.042332
    129 H55         8.5600   -3.8960   -1.9530 ha        1 MOL      0.109400
    130 H56         8.5490    0.1290   -3.3470 ha        1 MOL      0.109400
    131 H57        11.0090   -3.7890   -1.6400 ha        1 MOL      0.118147
    132 H58        11.0480    0.2860   -3.1760 ha        1 MOL      0.118147
    133 H59        12.2570   -1.6200   -2.4660 ha        1 MOL      0.095932
    134 N12         6.0640    1.0680   -1.4580 n         1 MOL     -0.090428
    135 C45         6.4500    2.3660   -0.8220 c3        1 MOL     -0.086535
    136 C46         5.8370    2.5590    0.6270 c         1 MOL      0.411630
    137 O20         6.4230    3.1130    1.5650 o         1 MOL     -0.518253
    138 C47         5.8550    3.4620   -1.7900 c3        1 MOL     -0.192670
    139 C48         4.5790    2.7600   -2.3390 c3        1 MOL     -0.021971
    140 C49         5.0760    1.3490   -2.4920 c3        1 MOL      0.076794
    141 H60         7.5330    2.4620   -0.7760 h1        1 MOL      0.090082
    142 H61         5.6570    4.3670   -1.2020 hc        1 MOL      0.084888
    143 H62         6.5600    3.6780   -2.5830 hc        1 MOL      0.084888
    144 H63         3.7760    2.7700   -1.5950 hc        1 MOL      0.040102
    145 H64         4.4110    3.1730   -3.3280 hc        1 MOL      0.040102
    146 H65         4.2340    0.6700   -2.4010 h1        1 MOL     -0.015148
    147 H66         5.6420    1.2010   -3.4060 h1        1 MOL     -0.015148
    148 N13         4.6940    1.9380    0.9150 n         1 MOL     -0.138409
    149 C50         3.9650    1.8160    2.2110 c3        1 MOL     -0.178755
    150 C51         4.7840    0.8980    3.1570 c         1 MOL      0.505021
    151 O21         5.1320    1.2920    4.2190 o         1 MOL     -0.560299
    152 C52         2.5330    1.2320    2.0420 c3        1 MOL     -0.022241
    153 C53         1.8000    1.8610    0.8820 c3        1 MOL      0.085483
    154 C54         0.4330    1.2330    0.5420 c         1 MOL      0.698642
    155 O22         0.1460    0.0970    0.9010 o         1 MOL     -0.790631
    156 O23        -0.2430    1.7600   -0.3660 o         1 MOL     -0.790631
    157 H67         4.3490    1.4010    0.1280 hn        1 MOL      0.147166
    158 H68         3.9090    2.7860    2.7200 h1        1 MOL      0.120015
    159 H69         1.9370    1.3800    2.9520 hc        1 MOL      0.037193
    160 H70         2.6190    0.1460    2.0480 hc        1 MOL      0.037193
    161 H71         2.4690    1.7050    0.0330 hc        1 MOL      0.004090
    162 H72         1.5450    2.9260    0.8620 hc        1 MOL      0.004090
    163 N14         5.2200   -0.2500    2.6930 n         1 MOL     -0.064720
    164 C55         6.1870   -1.1750    3.3710 c3        1 MOL     -0.175010
    165 H73         5.6400   -1.8660    4.0120 h1        1 MOL      0.069219
    166 H74         6.7400   -1.7390    2.6190 h1        1 MOL      0.069219
    167 H75         6.8840   -0.5950    3.9750 h1        1 MOL      0.069219
    168 H76         4.9610   -0.5760    1.7790 hn        1 MOL      0.116142
    169 Ca1        -2.0600   -0.1540   -0.4660 Ca        1 MOL      1.741925
    170 O24        -4.0760   -0.3800    1.4470 oh        1 MOL     -1.020120
    171 H77        -4.8540    0.0430    1.8290 ho        1 MOL      0.461122
    172 H78        -3.3950   -0.2580    2.1080 ho        1 MOL      0.461122
@<TRIPOS>BOND
     1    1    2 1   
     2    1    4 1   
     3    1    5 1   
     4    1    6 1   
     5    2    3 2   
     6    2    7 1   
     7    7    8 1   
     8    7   15 1   
     9    8    9 1   
    10    8   11 1   
    11    8   16 1   
    12    9   10 2   
    13    9   19 1   
    14   11   12 1   
    15   11   17 1   
    16   11   18 1   
    17   12   13 1   
    18   12   14 1   
    19   19   20 1   
    20   19   24 1   
    21   20   21 1   
    22   20   23 1   
    23   20   25 1   
    24   21   22 2   
    25   21   29 1   
    26   23   26 1   
    27   23   27 1   
    28   23   28 1   
    29   29   30 1   
    30   29   37 1   
    31   30   31 1   
    32   30   33 1   
    33   30   38 1   
    34   31   32 2   
    35   31   41 1   
    36   33   34 1   
    37   33   39 1   
    38   33   40 1   
    39   34   35 1   
    40   34   36 1   
    41   41   42 1   
    42   41   45 1   
    43   42   43 1   
    44   42   46 1   
    45   42   47 1   
    46   43   44 2   
    47   43   48 1   
    48   48   49 1   
    49   48   56 1   
    50   49   50 1   
    51   49   52 1   
    52   49   57 1   
    53   50   51 2   
    54   50   62 1   
    55   52   53 1   
    56   52   58 1   
    57   52   59 1   
    58   53   54 1   
    59   53   55 2   
    60   54   60 1   
    61   54   61 1   
    62   62   63 1   
    63   62   66 1   
    64   63   64 1   
    65   63   67 1   
    66   63   68 1   
    67   64   65 2   
    68   64   69 1   
    69   69   70 1   
    70   69   76 1   
    71   70   71 1   
    72   70   73 1   
    73   70   77 1   
    74   71   72 2   
    75   71   83 1   
    76   73   74 1   
    77   73   75 1   
    78   73   78 1   
    79   74   80 1   
    80   74   81 1   
    81   74   82 1   
    82   75   79 1   
    83   83   84 1   
    84   83   91 1   
    85   84   85 1   
    86   84   87 1   
    87   84   92 1   
    88   85   86 2   
    89   85  102 1   
    90   87   88 1   
    91   87   89 1   
    92   87   93 1   
    93   88   90 1   
    94   88   94 1   
    95   88   95 1   
    96   89   96 1   
    97   89   97 1   
    98   89   98 1   
    99   90   99 1   
   100   90  100 1   
   101   90  101 1   
   102  102  103 1   
   103  102  110 1   
   104  103  104 1   
   105  103  106 1   
   106  103  111 1   
   107  104  105 2   
   108  104  114 1   
   109  106  107 1   
   110  106  112 1   
   111  106  113 1   
   112  107  108 1   
   113  107  109 1   
   114  114  115 1   
   115  114  125 1   
   116  115  116 1   
   117  115  118 1   
   118  115  126 1   
   119  116  117 2   
   120  116  134 1   
   121  118  119 1   
   122  118  127 1   
   123  118  128 1   
   124  119  120 ar  
   125  119  121 ar  
   126  120  122 ar  
   127  120  129 1   
   128  121  123 ar  
   129  121  130 1   
   130  122  124 ar  
   131  122  131 1   
   132  123  124 ar  
   133  123  132 1   
   134  124  133 1   
   135  134  135 1   
   136  134  140 1   
   137  135  136 1   
   138  135  138 1   
   139  135  141 1   
   140  136  137 2   
   141  136  148 1   
   142  138  139 1   
   143  138  142 1   
   144  138  143 1   
   145  139  140 1   
   146  139  144 1   
   147  139  145 1   
   148  140  146 1   
   149  140  147 1   
   150  148  149 1   
   151  148  157 1   
   152  149  150 1   
   153  149  152 1   
   154  149  158 1   
   155  150  151 2   
   156  150  163 1   
   157  152  153 1   
   158  152  159 1   
   159  152  160 1   
   160  153  154 1   
   161  153  161 1   
   162  153  162 1   
   163  154  155 1   
   164  154  156 1   
   165  163  164 1   
   166  163  168 1   
   167  164  165 1   
   168  164  166 1   
   169  164  167 1   
   170  170  171 1   
   171  170  172 1   
@<TRIPOS>SUBSTRUCTURE
     1 MOL         1 TEMP              0 ****  ****    0 ROOT
