@<TRIPOS>MOLECULE
MOL
  175   173     1     0     0
SMALL
resp


@<TRIPOS>ATOM
      1 C1          0.7820    3.3670    5.6730 c3        1 MOL     -0.337958
      2 C2          0.1190    3.3610    4.3300 c         1 MOL      0.780245
      3 O1          0.7560    3.5910    3.3000 o         1 MOL     -0.576278
      4 H1          0.6000    4.3230    6.1630 hc        1 MOL      0.079764
      5 H2          0.3730    2.5630    6.2850 hc        1 MOL      0.079764
      6 H3          1.8550    3.2210    5.5500 hc        1 MOL      0.079764
      7 N1         -1.1930    3.0970    4.2110 n         1 MOL     -0.745608
      8 C3         -1.8170    3.0880    2.8880 c3        1 MOL      0.307000
      9 C4         -1.9120    4.4530    2.1970 c         1 MOL      0.598204
     10 O2         -2.2220    5.4330    2.8440 o         1 MOL     -0.583045
     11 C5         -3.2340    2.5450    3.0110 c3        1 MOL     -0.537179
     12 C6         -3.9270    2.2410    1.7430 c         1 MOL      0.915899
     13 O3         -5.0610    1.7560    1.7710 o         1 MOL     -0.707243
     14 O4         -3.2630    2.3640    0.6360 o         1 MOL     -0.707243
     15 H4         -1.7680    2.8430    5.0000 hn        1 MOL      0.360259
     16 H5         -1.2080    2.4140    2.2830 h1        1 MOL      0.081142
     17 H6         -3.8120    3.3510    3.4580 hc        1 MOL      0.104759
     18 H7         -3.2870    1.6410    3.6290 hc        1 MOL      0.104759
     19 N2         -1.5400    4.4560    0.8750 n         1 MOL     -0.516771
     20 C7         -1.7070    5.5990   -0.0240 c3        1 MOL      0.312636
     21 C8         -2.6020    5.2800   -1.2590 c         1 MOL      0.469334
     22 O5         -2.6180    6.0150   -2.2170 o         1 MOL     -0.585375
     23 C9         -0.3390    6.2160   -0.3350 c3        1 MOL     -0.159648
     24 H8         -1.1720    3.6210    0.4340 hn        1 MOL      0.307325
     25 H9         -2.2910    6.3670    0.4870 h1        1 MOL     -0.007889
     26 H10        -0.0190    6.6790    0.6020 hc        1 MOL      0.025805
     27 H11         0.4520    5.5050   -0.5810 hc        1 MOL      0.025805
     28 H12        -0.5080    6.9660   -1.1140 hc        1 MOL      0.025805
     29 N3         -3.3830    4.2400   -1.3060 n         1 MOL     -0.418531
     30 C10        -4.3050    3.8420   -2.4290 c3        1 MOL      0.155218
     31 C11        -5.6700    3.2430   -2.1500 c         1 MOL      0.377550
     32 O6         -6.4500    3.3700   -3.0980 o         1 MOL     -0.556057
     33 C12        -3.3740    2.9660   -3.3640 c3        1 MOL     -0.118371
     34 C13        -2.9690    1.6840   -2.6740 c         1 MOL      0.639405
     35 O7         -1.7930    1.2390   -2.7130 o         1 MOL     -0.696303
     36 O8         -3.7280    0.9840   -1.9480 o         1 MOL     -0.696303
     37 H13        -3.4000    3.6760   -0.4660 hn        1 MOL      0.198215
     38 H14        -4.4580    4.7360   -3.0300 h1        1 MOL      0.052865
     39 H15        -2.4990    3.5890   -3.5640 hc        1 MOL      0.045729
     40 H16        -3.8410    2.8460   -4.3370 hc        1 MOL      0.045729
     41 N4         -5.8960    2.5930   -1.0240 n         1 MOL     -0.182564
     42 C14        -7.1840    1.9880   -0.7030 c3        1 MOL     -0.182491
     43 C15        -7.4050    0.5720   -1.1880 c         1 MOL      0.453768
     44 O9         -8.5700    0.1040   -1.2400 o         1 MOL     -0.615333
     45 H17        -5.1050    2.4490   -0.4190 hn        1 MOL      0.116434
     46 H18        -8.0560    2.5550   -1.0300 h1        1 MOL      0.117263
     47 H19        -7.3960    1.9940    0.3710 h1        1 MOL      0.117263
     48 N5         -6.3860   -0.1580   -1.5580 n         1 MOL     -0.184796
     49 C16        -6.4570   -1.5370   -2.0870 c3        1 MOL     -0.005388
     50 C17        -6.6470   -2.6890   -1.0410 c         1 MOL      0.392885
     51 O10        -6.7610   -3.8820   -1.4010 o         1 MOL     -0.529350
     52 C18        -5.2900   -1.7580   -3.1230 c3        1 MOL     -0.123220
     53 C19        -3.9080   -1.9430   -2.6080 c         1 MOL      0.582290
     54 N6         -2.9400   -2.1910   -3.4850 n         1 MOL     -0.753017
     55 O11        -3.7010   -1.8780   -1.4140 o         1 MOL     -0.289689
     56 H20        -5.5020    0.3020   -1.7180 hn        1 MOL      0.225416
     57 H21        -7.3570   -1.6930   -2.6780 h1        1 MOL      0.095652
     58 H22        -5.2270   -0.9020   -3.7950 hc        1 MOL      0.027454
     59 H23        -5.5390   -2.6350   -3.7230 hc        1 MOL      0.027454
     60 H24        -3.1570   -1.9750   -4.4520 hn        1 MOL      0.349136
     61 H25        -1.9810   -2.1290   -3.1800 hn        1 MOL      0.349136
     62 N7         -6.4740   -2.4270    0.2490 n         1 MOL     -0.165712
     63 C20        -6.5310   -3.4380    1.3380 c3        1 MOL     -0.325299
     64 C21        -5.2320   -4.2640    1.5280 c         1 MOL      0.553449
     65 O12        -5.2740   -5.2380    2.2700 o         1 MOL     -0.578981
     66 H26        -6.3290   -1.4740    0.5510 hn        1 MOL      0.217756
     67 H27        -7.3130   -4.1190    0.9810 h1        1 MOL      0.139348
     68 H28        -6.6980   -2.9440    2.2880 h1        1 MOL      0.139348
     69 N8         -4.1280   -3.9210    0.8470 n         1 MOL     -0.026456
     70 C22        -2.8440   -4.6320    0.9400 c3        1 MOL     -0.260990
     71 C23        -1.6990   -3.6370    1.2000 c         1 MOL      0.561929
     72 O13        -1.8220   -2.4540    0.9260 o         1 MOL     -0.496772
     73 C24        -2.3970   -5.4490   -0.2860 c3        1 MOL      0.569310
     74 C25        -3.3160   -6.6360   -0.5140 c3        1 MOL     -0.451466
     75 O14        -2.3480   -4.7890   -1.4900 oh        1 MOL     -0.635911
     76 H29        -4.1570   -3.0470    0.3400 hn        1 MOL     -0.042348
     77 H30        -2.8110   -5.1930    1.8740 h1        1 MOL      0.080653
     78 H31        -1.3840   -5.8180   -0.1300 h1        1 MOL     -0.051996
     79 H32        -1.6540   -4.1260   -1.4840 ho        1 MOL      0.389993
     80 H33        -4.3860   -6.4360   -0.6090 hc        1 MOL      0.108988
     81 H34        -2.9840   -7.1350   -1.4250 hc        1 MOL      0.108988
     82 H35        -3.2060   -7.3430    0.3000 hc        1 MOL      0.108988
     83 N9         -0.6220   -3.9920    1.8860 n         1 MOL     -0.576824
     84 C26         0.5840   -3.1820    1.9360 c3        1 MOL     -0.079778
     85 C27         1.2770   -3.2270    0.6690 c         1 MOL      0.474280
     86 O15         1.6080   -4.3050    0.1600 o         1 MOL     -0.577764
     87 C28         1.5850   -3.5520    3.0650 c3        1 MOL      0.257539
     88 C29         0.9410   -4.0370    4.3840 c3        1 MOL      0.126009
     89 C30         2.3920   -2.2760    3.3980 c3        1 MOL     -0.418399
     90 C31         1.9980   -4.2450    5.5180 c3        1 MOL     -0.225959
     91 H36        -0.6340   -4.9760    2.1320 hn        1 MOL      0.302438
     92 H37         0.2100   -2.1910    2.1790 h1        1 MOL      0.074592
     93 H38         2.2900   -4.3370    2.7930 hc        1 MOL     -0.007158
     94 H39         0.4440   -4.9730    4.1310 hc        1 MOL     -0.030480
     95 H40         0.1580   -3.3940    4.7670 hc        1 MOL     -0.030480
     96 H41         1.9400   -1.7590    4.2450 hc        1 MOL      0.094894
     97 H42         3.4290   -2.4770    3.6630 hc        1 MOL      0.094894
     98 H43         2.3430   -1.6010    2.5410 hc        1 MOL      0.094894
     99 H44         1.6740   -5.1090    6.0970 hc        1 MOL      0.047925
    100 H45         2.9390   -4.4800    5.0130 hc        1 MOL      0.047925
    101 H46         2.1290   -3.3520    6.1280 hc        1 MOL      0.047925
    102 N10         1.5800   -2.0560    0.0420 n         1 MOL     -0.334558
    103 C32         2.4170   -1.9980   -1.2470 c3        1 MOL      0.117026
    104 C33         3.8430   -1.5320   -0.9180 c         1 MOL      0.446611
    105 O16         4.0490   -1.0120    0.1960 o         1 MOL     -0.379525
    106 C34         1.7490   -1.0970   -2.2350 c3        1 MOL     -0.151829
    107 C35         0.2630   -1.4730   -2.5390 c         1 MOL      0.554547
    108 O17        -0.1240   -1.6510   -3.6940 o         1 MOL     -0.625494
    109 O18        -0.5660   -1.3700   -1.6370 o         1 MOL     -0.625494
    110 H47         1.2030   -1.2220    0.4600 hn        1 MOL      0.328644
    111 H48         2.5030   -3.0100   -1.6430 h1        1 MOL      0.059734
    112 H49         2.2630   -1.1840   -3.1850 hc        1 MOL      0.052731
    113 H50         1.7880   -0.0740   -1.8600 hc        1 MOL      0.052731
    114 N11         4.8460   -1.8610   -1.7230 n         1 MOL     -0.629373
    115 C36         6.1740   -1.4870   -1.3680 c3        1 MOL      0.402147
    116 C37         6.5170   -0.0480   -1.1170 c         1 MOL      0.154976
    117 O19         7.2120    0.2380   -0.1730 o         1 MOL     -0.473802
    118 C38         7.2430   -2.0790   -2.3530 c3        1 MOL     -0.156384
    119 C39         8.6890   -1.8510   -2.1350 ca        1 MOL      0.057001
    120 C40         9.4830   -1.1150   -3.0450 ca        1 MOL     -0.102685
    121 C41         9.3180   -2.3970   -1.0320 ca        1 MOL     -0.102685
    122 C42        10.8750   -1.0370   -2.8850 ca        1 MOL     -0.198988
    123 C43        10.7230   -2.2180   -0.7880 ca        1 MOL     -0.198988
    124 C44        11.4900   -1.4950   -1.7140 ca        1 MOL      0.001410
    125 H51         4.7350   -2.2240   -2.6500 hn        1 MOL      0.319678
    126 H52         6.5080   -1.9630   -0.4440 h1        1 MOL      0.038837
    127 H53         7.0020   -1.7380   -3.3620 hc        1 MOL      0.042332
    128 H54         7.1150   -3.1580   -2.3450 hc        1 MOL      0.042332
    129 H55         9.0070   -0.7100   -3.9320 ha        1 MOL      0.102783
    130 H56         8.6050   -2.9960   -0.4790 ha        1 MOL      0.102783
    131 H57        11.4760   -0.5720   -3.6460 ha        1 MOL      0.125490
    132 H58        11.2600   -2.5990    0.0660 ha        1 MOL      0.125490
    133 H59        12.5600   -1.3340   -1.6670 ha        1 MOL      0.076312
    134 N12         5.9660    0.9700   -1.7550 n         1 MOL      0.198539
    135 C45         6.2360    2.3200   -1.4400 c3        1 MOL     -0.047430
    136 C46         5.5630    2.8610   -0.1700 c         1 MOL      0.361292
    137 O20         5.6290    4.0360    0.2080 o         1 MOL     -0.543045
    138 C47         5.8430    3.1960   -2.6530 c3        1 MOL     -0.040427
    139 C48         5.6530    2.2600   -3.8150 c3        1 MOL     -0.072812
    140 C49         5.4270    0.8960   -3.0820 c3        1 MOL      0.003385
    141 H60         7.3000    2.4900   -1.2640 h1        1 MOL      0.054068
    142 H61         5.0010    3.8110   -2.3380 hc        1 MOL      0.038238
    143 H62         6.6120    3.9240   -2.8810 hc        1 MOL      0.038238
    144 H63         4.7730    2.5100   -4.4020 hc        1 MOL      0.040849
    145 H64         6.5650    2.2380   -4.4020 hc        1 MOL      0.040849
    146 H65         4.3730    0.6100   -3.0670 h1        1 MOL     -0.009755
    147 H66         6.0740    0.2420   -3.6720 h1        1 MOL     -0.009755
    148 N13         4.6590    2.0700    0.4510 n         1 MOL      0.003525
    149 C50         4.0200    2.3000    1.7630 c3        1 MOL     -0.042535
    150 C51         4.9380    1.6660    2.8290 c         1 MOL      0.542900
    151 O21         5.4680    2.3080    3.6960 o         1 MOL     -0.564683
    152 C52         2.6150    1.5880    1.7680 c3        1 MOL     -0.101499
    153 C53         1.7700    2.1600    0.6150 c3        1 MOL      0.031360
    154 C54         0.4640    1.4330    0.4470 c         1 MOL      0.519224
    155 O22        -0.5060    1.9410   -0.1730 o         1 MOL     -0.640410
    156 O23         0.3200    0.3000    0.9650 o         1 MOL     -0.640410
    157 H67         4.5670    1.1850   -0.0170 hn        1 MOL     -0.009333
    158 H68         3.9610    3.3240    2.1310 h1        1 MOL      0.092208
    159 H69         2.1340    1.8530    2.7100 hc        1 MOL      0.002386
    160 H70         2.6820    0.5090    1.6730 hc        1 MOL      0.002386
    161 H71         2.2630    2.0430   -0.3400 hc        1 MOL      0.034005
    162 H72         1.5910    3.2330    0.6730 hc        1 MOL      0.034005
    163 N14         5.2660    0.3980    2.6840 n         1 MOL     -0.243215
    164 C55         6.4050   -0.3080    3.2940 c3        1 MOL     -0.179165
    165 H73         6.5530    0.0520    4.3120 h1        1 MOL      0.082351
    166 H74         6.2020   -1.3780    3.3130 h1        1 MOL      0.082351
    167 H75         7.3060   -0.1190    2.7100 h1        1 MOL      0.082351
    168 H76         4.7160   -0.0990    2.0040 hn        1 MOL      0.155628
    169 Ca1        -2.1390   -0.0730   -0.2550 Ca        1 MOL      1.690128
    170 O24        -1.5140   -0.2770    2.6410 oh        1 MOL     -0.798569
    171 H77        -0.5770   -0.2580    2.4270 ho        1 MOL      0.379196
    172 H78        -1.6120   -1.0170    3.2280 ho        1 MOL      0.379196
    173 O25        -4.2800   -0.7180    1.2030 oh        1 MOL     -0.798569
    174 H79        -4.5060    0.1400    1.5730 ho        1 MOL      0.379196
    175 H80        -4.5420   -1.3480    1.8840 ho        1 MOL      0.379196
@<TRIPOS>BOND
     1    1    2 1   
     2    1    4 1   
     3    1    5 1   
     4    1    6 1   
     5    2    3 2   
     6    2    7 1   
     7    7    8 1   
     8    7   15 1   
     9    8    9 1   
    10    8   11 1   
    11    8   16 1   
    12    9   10 2   
    13    9   19 1   
    14   11   12 1   
    15   11   17 1   
    16   11   18 1   
    17   12   13 1   
    18   12   14 1   
    19   19   20 1   
    20   19   24 1   
    21   20   21 1   
    22   20   23 1   
    23   20   25 1   
    24   21   22 2   
    25   21   29 1   
    26   23   26 1   
    27   23   27 1   
    28   23   28 1   
    29   29   30 1   
    30   29   37 1   
    31   30   31 1   
    32   30   33 1   
    33   30   38 1   
    34   31   32 2   
    35   31   41 1   
    36   33   34 1   
    37   33   39 1   
    38   33   40 1   
    39   34   35 1   
    40   34   36 1   
    41   41   42 1   
    42   41   45 1   
    43   42   43 1   
    44   42   46 1   
    45   42   47 1   
    46   43   44 2   
    47   43   48 1   
    48   48   49 1   
    49   48   56 1   
    50   49   50 1   
    51   49   52 1   
    52   49   57 1   
    53   50   51 2   
    54   50   62 1   
    55   52   53 1   
    56   52   58 1   
    57   52   59 1   
    58   53   54 1   
    59   53   55 2   
    60   54   60 1   
    61   54   61 1   
    62   62   63 1   
    63   62   66 1   
    64   63   64 1   
    65   63   67 1   
    66   63   68 1   
    67   64   65 2   
    68   64   69 1   
    69   69   70 1   
    70   69   76 1   
    71   70   71 1   
    72   70   73 1   
    73   70   77 1   
    74   71   72 2   
    75   71   83 1   
    76   73   74 1   
    77   73   75 1   
    78   73   78 1   
    79   74   80 1   
    80   74   81 1   
    81   74   82 1   
    82   75   79 1   
    83   83   84 1   
    84   83   91 1   
    85   84   85 1   
    86   84   87 1   
    87   84   92 1   
    88   85   86 2   
    89   85  102 1   
    90   87   88 1   
    91   87   89 1   
    92   87   93 1   
    93   88   90 1   
    94   88   94 1   
    95   88   95 1   
    96   89   96 1   
    97   89   97 1   
    98   89   98 1   
    99   90   99 1   
   100   90  100 1   
   101   90  101 1   
   102  102  103 1   
   103  102  110 1   
   104  103  104 1   
   105  103  106 1   
   106  103  111 1   
   107  104  105 2   
   108  104  114 1   
   109  106  107 1   
   110  106  112 1   
   111  106  113 1   
   112  107  108 1   
   113  107  109 1   
   114  114  115 1   
   115  114  125 1   
   116  115  116 1   
   117  115  118 1   
   118  115  126 1   
   119  116  117 2   
   120  116  134 1   
   121  118  119 1   
   122  118  127 1   
   123  118  128 1   
   124  119  120 ar  
   125  119  121 ar  
   126  120  122 ar  
   127  120  129 1   
   128  121  123 ar  
   129  121  130 1   
   130  122  124 ar  
   131  122  131 1   
   132  123  124 ar  
   133  123  132 1   
   134  124  133 1   
   135  134  135 1   
   136  134  140 1   
   137  135  136 1   
   138  135  138 1   
   139  135  141 1   
   140  136  137 2   
   141  136  148 1   
   142  138  139 1   
   143  138  142 1   
   144  138  143 1   
   145  139  140 1   
   146  139  144 1   
   147  139  145 1   
   148  140  146 1   
   149  140  147 1   
   150  148  149 1   
   151  148  157 1   
   152  149  150 1   
   153  149  152 1   
   154  149  158 1   
   155  150  151 2   
   156  150  163 1   
   157  152  153 1   
   158  152  159 1   
   159  152  160 1   
   160  153  154 1   
   161  153  161 1   
   162  153  162 1   
   163  154  155 1   
   164  154  156 1   
   165  163  164 1   
   166  163  168 1   
   167  164  165 1   
   168  164  166 1   
   169  164  167 1   
   170  170  171 1   
   171  170  172 1   
   172  173  174 1   
   173  173  175 1   
@<TRIPOS>SUBSTRUCTURE
     1 MOL         1 TEMP              0 ****  ****    0 ROOT
