@<TRIPOS>MOLECULE
MOL
  176   174     1     0     0
SMALL
resp


@<TRIPOS>ATOM
      1 C1          0.4470    2.3190    6.6500 c3        1 MOL     -0.334706
      2 C2          0.4870    1.9840    5.1520 c         1 MOL      0.734984
      3 O1          1.5370    1.9540    4.5530 o         1 MOL     -0.561393
      4 H1          1.3770    2.8090    6.9380 hc        1 MOL      0.086629
      5 H2         -0.3910    2.9850    6.8530 hc        1 MOL      0.086629
      6 H3          0.3280    1.4000    7.2250 hc        1 MOL      0.086629
      7 N1         -0.6990    1.9260    4.5210 n         1 MOL     -0.649543
      8 C3         -0.8280    1.9190    3.0730 c3        1 MOL      0.034415
      9 C4         -0.6560    3.3050    2.4310 c         1 MOL      0.629992
     10 O2         -1.2650    4.3430    2.7820 o         1 MOL     -0.546073
     11 C5         -2.2680    1.5210    2.7800 c3        1 MOL     -0.037779
     12 C6         -2.4580    1.2080    1.3660 c         1 MOL      0.717670
     13 O3         -2.1340    2.0190    0.4610 o         1 MOL     -0.715684
     14 O4         -2.7050    0.0680    0.9820 o         1 MOL     -0.715684
     15 H4         -1.5520    1.9000    5.0670 hn        1 MOL      0.333175
     16 H5         -0.1750    1.1580    2.6640 h1        1 MOL      0.045912
     17 H6         -2.9100    2.3320    3.1320 hc        1 MOL      0.021553
     18 H7         -2.5280    0.6400    3.3580 hc        1 MOL      0.021553
     19 N2          0.2050    3.4110    1.4380 n         1 MOL     -0.287382
     20 C7          0.6230    4.6800    0.8080 c3        1 MOL     -0.033316
     21 C8         -0.5290    5.5190    0.1540 c         1 MOL      0.381379
     22 O5         -0.6380    6.7530    0.3180 o         1 MOL     -0.533166
     23 C9          1.7500    4.3990   -0.1950 c3        1 MOL     -0.038173
     24 C10         2.0030    5.4120   -1.2610 c3        1 MOL     -0.209741
     25 C11         3.4490    5.1980   -1.8480 c3        1 MOL      0.093203
     26 C12         3.8200    6.4360   -2.6220 c3        1 MOL      0.089097
     27 N3          5.2300    6.5320   -3.0060 n4        1 MOL     -0.465284
     28 H8          0.6780    2.5830    1.0890 hn        1 MOL      0.155027
     29 H9          1.0410    5.2790    1.6210 h1        1 MOL      0.091924
     30 H10         1.6370    3.4260   -0.6640 hc        1 MOL      0.083619
     31 H11         2.6780    4.2800    0.3610 hc        1 MOL      0.083619
     32 H12         2.0540    6.4160   -0.8560 hc        1 MOL      0.067061
     33 H13         1.3320    5.3850   -2.1180 hc        1 MOL      0.067061
     34 H14         3.5460    4.3590   -2.5400 hc        1 MOL      0.008475
     35 H15         4.1930    4.9000   -1.1100 hc        1 MOL      0.008475
     36 H16         3.4500    7.2390   -1.9760 hx        1 MOL      0.069737
     37 H17         3.1490    6.5340   -3.4730 hx        1 MOL      0.069737
     38 H18         5.3440    5.9710   -3.8420 hn        1 MOL      0.355689
     39 H19         5.5770    7.4720   -3.1270 hn        1 MOL      0.355689
     40 H20         5.8520    6.1300   -2.3130 hn        1 MOL      0.355689
     41 N4         -1.4070    4.7380   -0.4940 n         1 MOL     -0.073631
     42 C13        -2.5750    5.2400   -1.2130 c3        1 MOL      0.072897
     43 C14        -3.9020    4.9330   -0.4560 c         1 MOL      0.421646
     44 O6         -4.9650    5.4180   -0.8810 o         1 MOL     -0.563184
     45 C15        -2.7680    4.6800   -2.6310 c3        1 MOL     -0.219074
     46 C16        -2.5330    3.1570   -2.6020 c         1 MOL      0.731615
     47 O7         -3.4620    2.3850   -2.2420 o         1 MOL     -0.721127
     48 O8         -1.4240    2.6920   -2.8930 o         1 MOL     -0.721127
     49 H21        -1.2050    3.7450   -0.4940 hn        1 MOL      0.045491
     50 H22        -2.4630    6.3260   -1.2210 h1        1 MOL      0.076267
     51 H23        -1.9780    5.1840   -3.1880 hc        1 MOL      0.056895
     52 H24        -3.7500    4.9800   -3.0040 hc        1 MOL      0.056895
     53 N5         -3.8920    4.1390    0.6080 n         1 MOL     -0.157834
     54 C17        -5.1480    3.7710    1.3890 c3        1 MOL     -0.170270
     55 C18        -5.9670    2.6550    0.8970 c         1 MOL      0.510906
     56 O9         -6.8190    2.2570    1.6370 o         1 MOL     -0.563808
     57 H25        -3.0700    3.6620    0.9290 hn        1 MOL      0.099826
     58 H26        -5.7170    4.6980    1.4850 h1        1 MOL      0.110677
     59 H27        -4.9300    3.5740    2.4460 h1        1 MOL      0.110677
     60 N6         -5.7020    1.9660   -0.2290 n         1 MOL     -0.073639
     61 C19        -6.4750    0.7860   -0.6900 c3        1 MOL     -0.548403
     62 C20        -6.4150   -0.4820    0.2090 c         1 MOL      0.659992
     63 O10        -7.2790   -1.3500    0.1540 o         1 MOL     -0.537568
     64 C21        -6.2080    0.4890   -2.1660 c3        1 MOL     -0.059468
     65 C22        -5.0660   -0.3940   -2.6540 c         1 MOL      0.673841
     66 N7         -5.1700   -0.8750   -3.8750 n         1 MOL     -0.838786
     67 O11        -4.1730   -0.5360   -1.8670 o         1 MOL     -0.619618
     68 H28        -5.0090    2.4480   -0.7840 hn        1 MOL      0.192629
     69 H29        -7.4900    1.1690   -0.6900 h1        1 MOL      0.231487
     70 H30        -5.9940    1.3700   -2.7670 hc        1 MOL      0.082141
     71 H31        -7.0680    0.1670   -2.7510 hc        1 MOL      0.082141
     72 H32        -6.0020   -0.7460   -4.4360 hn        1 MOL      0.387697
     73 H33        -4.4890   -1.5930   -4.0710 hn        1 MOL      0.387697
     74 N8         -5.5320   -0.5510    1.2080 n         1 MOL     -0.211528
     75 C23        -5.4640   -1.6960    2.1620 c3        1 MOL     -0.176165
     76 C24        -4.7890   -2.9580    1.6400 c         1 MOL      0.490767
     77 O12        -5.3340   -4.0520    1.8940 o         1 MOL     -0.502898
     78 H34        -4.6870   -0.0050    1.1790 hn        1 MOL      0.165333
     79 H35        -6.4120   -1.9620    2.6220 h1        1 MOL      0.100397
     80 H36        -4.8570   -1.3890    3.0140 h1        1 MOL      0.100397
     81 N9         -3.7380   -2.6690    0.9310 n         1 MOL     -0.357504
     82 C25        -2.7370   -3.5970    0.4450 c3        1 MOL      0.124874
     83 C26        -1.3230   -3.0250    0.1810 c         1 MOL      0.603810
     84 O13        -1.2670   -2.0450   -0.5270 o         1 MOL     -0.674413
     85 C27        -3.1480   -4.1670   -0.9050 c3        1 MOL      0.044835
     86 C28        -4.5720   -4.8140   -0.9700 ca        1 MOL     -0.113872
     87 C29        -4.7770   -6.1910   -0.8060 ca        1 MOL     -0.113424
     88 C30        -5.7050   -4.0050   -1.2520 ca        1 MOL     -0.113424
     89 C31        -6.0870   -6.7330   -0.8280 ca        1 MOL     -0.324041
     90 C32        -6.9920   -4.5450   -1.2810 ca        1 MOL     -0.324041
     91 C33        -7.2490   -5.8760   -0.9130 ca        1 MOL      0.475318
     92 O14        -8.5110   -6.3370   -0.9300 oh        1 MOL     -0.521071
     93 H37        -3.5510   -1.6800    0.8400 hn        1 MOL      0.218456
     94 H38        -2.6930   -4.3770    1.2030 h1        1 MOL      0.030092
     95 H39        -2.3590   -4.9130   -1.0850 hc        1 MOL      0.006894
     96 H40        -3.1550   -3.4200   -1.6950 hc        1 MOL      0.006894
     97 H41        -3.9000   -6.7660   -0.5270 ha        1 MOL      0.137068
     98 H42        -5.5760   -2.9480   -1.4460 ha        1 MOL      0.137068
     99 H43        -6.3430   -7.7780   -0.7710 ha        1 MOL      0.146027
    100 H44        -7.8120   -3.9270   -1.6360 ha        1 MOL      0.146027
    101 H45        -9.0390   -5.5400   -1.0330 ho        1 MOL      0.372349
    102 N10        -0.2850   -3.6540    0.6480 n         1 MOL     -0.429736
    103 C34         1.1090   -3.0080    0.5930 c3        1 MOL     -0.037623
    104 C35         2.0750   -3.9630   -0.1490 c         1 MOL      0.607745
    105 O15         1.8540   -5.2310   -0.0770 o         1 MOL     -0.557778
    106 C36         1.4820   -2.6010    2.0600 c3        1 MOL     -0.254172
    107 C37         1.6650   -3.7380    3.0140 c3        1 MOL      0.131638
    108 C38         0.5490   -1.5850    2.7800 c3        1 MOL      0.045011
    109 C39         2.4430   -3.5620    4.2890 c3        1 MOL     -0.250287
    110 H46        -0.3220   -4.5870    1.0420 hn        1 MOL      0.271179
    111 H47         1.0420   -2.0720    0.0490 h1        1 MOL      0.128968
    112 H48         2.4000   -2.0680    1.8370 hc        1 MOL      0.047064
    113 H49         2.2130   -4.5360    2.5190 hc        1 MOL      0.016139
    114 H50         0.7260   -4.1890    3.3380 hc        1 MOL      0.016139
    115 H51         1.0720   -1.0890    3.5880 hc        1 MOL      0.028388
    116 H52         0.2480   -0.7970    2.0850 hc        1 MOL      0.028388
    117 H53        -0.3830   -1.9980    3.1670 hc        1 MOL      0.028388
    118 H54         2.7200   -4.5850    4.5370 hc        1 MOL      0.061091
    119 H55         3.3410   -3.0030    4.0370 hc        1 MOL      0.061091
    120 H56         1.8000   -3.1310    5.0670 hc        1 MOL      0.061091
    121 N11         3.0330   -3.3860   -0.7600 n         1 MOL     -0.457290
    122 C40         4.2930   -3.9880   -1.2330 c3        1 MOL      0.242603
    123 C41         5.4860   -3.7150   -0.2870 c         1 MOL      0.308477
    124 O16         5.3710   -3.0190    0.6760 o         1 MOL     -0.296322
    125 C42         4.5780   -3.4400   -2.6550 c3        1 MOL     -0.266263
    126 O17         4.9210   -2.0810   -2.6870 oh        1 MOL     -0.280471
    127 H57         3.0410   -2.3750   -0.6870 hn        1 MOL      0.261978
    128 H58         4.1370   -5.0620   -1.3210 h1        1 MOL      0.059493
    129 H59         3.7030   -3.5380   -3.2960 h1        1 MOL      0.107875
    130 H60         5.4460   -3.8990   -3.1290 h1        1 MOL      0.107875
    131 H61         4.5710   -1.8220   -3.5430 ho        1 MOL      0.365188
    132 N12         6.7380   -4.1660   -0.6760 n         1 MOL     -0.377885
    133 C43         7.9430   -3.6440   -0.0200 c3        1 MOL      0.110298
    134 C44         8.2130   -2.1560   -0.3030 c         1 MOL      0.460513
    135 O18         8.6980   -1.4300    0.5770 o         1 MOL     -0.507996
    136 C45         9.1350   -4.6090   -0.3410 c3        1 MOL     -0.379129
    137 H62         6.8320   -4.9110   -1.3580 hn        1 MOL      0.271728
    138 H63         7.7470   -3.7640    1.0520 h1        1 MOL      0.096577
    139 H64        10.0670   -4.0610   -0.4200 hc        1 MOL      0.116903
    140 H65         9.2610   -5.3840    0.4210 hc        1 MOL      0.116903
    141 H66         9.0030   -5.1670   -1.2690 hc        1 MOL      0.116903
    142 N13         7.9230   -1.6280   -1.5050 n         1 MOL     -0.370034
    143 C46         8.0080   -0.1290   -1.7560 c3        1 MOL      0.088376
    144 C47         7.0280    0.7370   -0.9960 c         1 MOL      0.377378
    145 O19         7.5110    1.7830   -0.4780 o         1 MOL     -0.514382
    146 C48         7.8670    0.1820   -3.2730 c3        1 MOL     -0.148660
    147 H67         7.5980   -2.2580   -2.2140 hn        1 MOL      0.251267
    148 H68         9.0520    0.1210   -1.5950 h1        1 MOL      0.108066
    149 H69         7.8590    1.2580   -3.4170 hc        1 MOL      0.036352
    150 H70         8.6400   -0.3410   -3.8400 hc        1 MOL      0.036352
    151 H71         6.9330   -0.2590   -3.6340 hc        1 MOL      0.036352
    152 N14         5.7830    0.2700   -0.8130 n         1 MOL     -0.003944
    153 C49         4.8440    0.8190    0.1350 c3        1 MOL     -0.331123
    154 C50         5.3920    0.7710    1.5930 c         1 MOL      0.493100
    155 O20         5.1610    1.7270    2.3560 o         1 MOL     -0.525357
    156 C51         3.4910    0.1450   -0.0820 c3        1 MOL     -0.009076
    157 C52         2.8370    0.7890   -1.3560 c3        1 MOL      0.084821
    158 C53         1.3570    0.5140   -1.1620 c         1 MOL      0.561552
    159 O21         0.6220    0.9510   -0.2370 o         1 MOL     -0.661606
    160 O22         0.8230   -0.1630   -2.0320 o         1 MOL     -0.661606
    161 H72         5.5780   -0.6500   -1.1580 hn        1 MOL     -0.118114
    162 H73         4.7060    1.8660   -0.1150 h1        1 MOL      0.132171
    163 H74         2.9090    0.3090    0.8310 hc        1 MOL      0.093717
    164 H75         3.5720   -0.9360   -0.0890 hc        1 MOL      0.093717
    165 H76         3.2090    0.2050   -2.1900 hc        1 MOL     -0.050912
    166 H77         3.0280    1.8560   -1.3940 hc        1 MOL     -0.050912
    167 N15         6.0050   -0.3140    2.0740 n         1 MOL      0.017057
    168 C54         6.6380   -0.4400    3.3500 c3        1 MOL     -0.297134
    169 H78         7.6170    0.0380    3.3180 h1        1 MOL      0.108485
    170 H79         6.0230    0.0420    4.1100 h1        1 MOL      0.108485
    171 H80         6.7570   -1.4950    3.5950 h1        1 MOL      0.108485
    172 H81         5.8700   -1.2150    1.6330 hn        1 MOL      0.072341
    173 Ca1        -1.6950    0.4180   -1.4580 Ca        1 MOL      1.784591
    174 O23        -1.5060   -0.4060   -4.1950 oh        1 MOL     -0.884778
    175 H82        -0.8150   -0.3120   -4.8450 ho        1 MOL      0.424741
    176 H83        -2.2290   -0.8080   -4.6630 ho        1 MOL      0.424741
@<TRIPOS>BOND
     1    1    2 1   
     2    1    4 1   
     3    1    5 1   
     4    1    6 1   
     5    2    3 2   
     6    2    7 1   
     7    7    8 1   
     8    7   15 1   
     9    8    9 1   
    10    8   11 1   
    11    8   16 1   
    12    9   10 2   
    13    9   19 1   
    14   11   12 1   
    15   11   17 1   
    16   11   18 1   
    17   12   13 1   
    18   12   14 1   
    19   19   20 1   
    20   19   28 1   
    21   20   21 1   
    22   20   23 1   
    23   20   29 1   
    24   21   22 2   
    25   21   41 1   
    26   23   24 1   
    27   23   30 1   
    28   23   31 1   
    29   24   25 1   
    30   24   32 1   
    31   24   33 1   
    32   25   26 1   
    33   25   34 1   
    34   25   35 1   
    35   26   27 1   
    36   26   36 1   
    37   26   37 1   
    38   27   38 1   
    39   27   39 1   
    40   27   40 1   
    41   41   42 1   
    42   41   49 1   
    43   42   43 1   
    44   42   45 1   
    45   42   50 1   
    46   43   44 2   
    47   43   53 1   
    48   45   46 1   
    49   45   51 1   
    50   45   52 1   
    51   46   47 1   
    52   46   48 1   
    53   53   54 1   
    54   53   57 1   
    55   54   55 1   
    56   54   58 1   
    57   54   59 1   
    58   55   56 2   
    59   55   60 1   
    60   60   61 1   
    61   60   68 1   
    62   61   62 1   
    63   61   64 1   
    64   61   69 1   
    65   62   63 2   
    66   62   74 1   
    67   64   65 1   
    68   64   70 1   
    69   64   71 1   
    70   65   66 1   
    71   65   67 2   
    72   66   72 1   
    73   66   73 1   
    74   74   75 1   
    75   74   78 1   
    76   75   76 1   
    77   75   79 1   
    78   75   80 1   
    79   76   77 2   
    80   76   81 1   
    81   81   82 1   
    82   81   93 1   
    83   82   83 1   
    84   82   85 1   
    85   82   94 1   
    86   83   84 2   
    87   83  102 1   
    88   85   86 1   
    89   85   95 1   
    90   85   96 1   
    91   86   87 ar  
    92   86   88 ar  
    93   87   89 ar  
    94   87   97 1   
    95   88   90 ar  
    96   88   98 1   
    97   89   91 ar  
    98   89   99 1   
    99   90   91 ar  
   100   90  100 1   
   101   91   92 1   
   102   92  101 1   
   103  102  103 1   
   104  102  110 1   
   105  103  104 1   
   106  103  106 1   
   107  103  111 1   
   108  104  105 2   
   109  104  121 1   
   110  106  107 1   
   111  106  108 1   
   112  106  112 1   
   113  107  109 1   
   114  107  113 1   
   115  107  114 1   
   116  108  115 1   
   117  108  116 1   
   118  108  117 1   
   119  109  118 1   
   120  109  119 1   
   121  109  120 1   
   122  121  122 1   
   123  121  127 1   
   124  122  123 1   
   125  122  125 1   
   126  122  128 1   
   127  123  124 2   
   128  123  132 1   
   129  125  126 1   
   130  125  129 1   
   131  125  130 1   
   132  126  131 1   
   133  132  133 1   
   134  132  137 1   
   135  133  134 1   
   136  133  136 1   
   137  133  138 1   
   138  134  135 2   
   139  134  142 1   
   140  136  139 1   
   141  136  140 1   
   142  136  141 1   
   143  142  143 1   
   144  142  147 1   
   145  143  144 1   
   146  143  146 1   
   147  143  148 1   
   148  144  145 2   
   149  144  152 1   
   150  146  149 1   
   151  146  150 1   
   152  146  151 1   
   153  152  153 1   
   154  152  161 1   
   155  153  154 1   
   156  153  156 1   
   157  153  162 1   
   158  154  155 2   
   159  154  167 1   
   160  156  157 1   
   161  156  163 1   
   162  156  164 1   
   163  157  158 1   
   164  157  165 1   
   165  157  166 1   
   166  158  159 1   
   167  158  160 1   
   168  167  168 1   
   169  167  172 1   
   170  168  169 1   
   171  168  170 1   
   172  168  171 1   
   173  174  175 1   
   174  174  176 1   
@<TRIPOS>SUBSTRUCTURE
     1 MOL         1 TEMP              0 ****  ****    0 ROOT
