@<TRIPOS>MOLECULE
MOL
  176   174     1     0     0
SMALL
resp


@<TRIPOS>ATOM
      1 C1          1.8460    4.1460    6.5680 c3        1 MOL     -0.355782
      2 C2          1.6620    3.3320    5.2620 c         1 MOL      0.718518
      3 O1          2.5990    2.8420    4.6840 o         1 MOL     -0.546604
      4 H1          0.9050    4.6310    6.8280 hc        1 MOL      0.089685
      5 H2          2.1450    3.4760    7.3740 hc        1 MOL      0.089685
      6 H3          2.6150    4.9040    6.4200 hc        1 MOL      0.089685
      7 N1          0.3690    3.2070    4.7980 n         1 MOL     -0.615215
      8 C3          0.0900    2.8650    3.3830 c3        1 MOL      0.031095
      9 C4          0.1280    4.1580    2.5110 c         1 MOL      0.609859
     10 O2         -0.3630    5.2760    2.8670 o         1 MOL     -0.557442
     11 C5         -1.3090    2.1010    3.1870 c3        1 MOL     -0.060822
     12 C6         -1.4530    1.3430    1.9290 c         1 MOL      0.593880
     13 O3         -0.6940    1.6030    0.9780 o         1 MOL     -0.683687
     14 O4         -2.3620    0.5110    1.8030 o         1 MOL     -0.683687
     15 H4         -0.4080    3.5620    5.3380 hn        1 MOL      0.329652
     16 H5          0.8910    2.1800    3.1030 h1        1 MOL      0.065869
     17 H6         -2.0390    2.9180    3.1940 hc        1 MOL      0.021169
     18 H7         -1.4380    1.3510    3.9730 hc        1 MOL      0.021169
     19 N2          0.6870    3.9240    1.2890 n         1 MOL     -0.402066
     20 C7          0.8760    4.9440    0.2390 c3        1 MOL     -0.071109
     21 C8         -0.3660    5.2470   -0.6030 c         1 MOL      0.417207
     22 O5         -0.5510    6.3670   -1.0370 o         1 MOL     -0.571729
     23 C9          2.1010    4.6090   -0.6290 c3        1 MOL     -0.104066
     24 C10         2.4390    5.6170   -1.7760 c3        1 MOL      0.023537
     25 C11         3.6230    5.2420   -2.5340 c3        1 MOL     -0.005016
     26 C12         3.9150    6.3160   -3.5940 c3        1 MOL     -0.024283
     27 N3          2.8940    6.5620   -4.6130 n4        1 MOL     -0.258888
     28 H8          0.8450    2.9660    1.0210 hn        1 MOL      0.222294
     29 H9          1.0870    5.8200    0.8460 h1        1 MOL      0.112873
     30 H10         1.8340    3.6670   -1.1260 hc        1 MOL      0.083477
     31 H11         2.9290    4.4960    0.0690 hc        1 MOL      0.083477
     32 H12         2.5190    6.6200   -1.3620 hc        1 MOL      0.015872
     33 H13         1.5830    5.7010   -2.4440 hc        1 MOL      0.015872
     34 H14         3.5470    4.3240   -3.1300 hc        1 MOL      0.060876
     35 H15         4.4470    5.0990   -1.8440 hc        1 MOL      0.060876
     36 H16         4.7970    5.9320   -4.1180 hx        1 MOL      0.075122
     37 H17         4.2070    7.2780   -3.1630 hx        1 MOL      0.075122
     38 H18         1.9240    6.4340   -4.3730 hn        1 MOL      0.305777
     39 H19         2.9350    7.4950   -4.9740 hn        1 MOL      0.305777
     40 H20         3.0200    6.0140   -5.4570 hn        1 MOL      0.305777
     41 N4         -1.1870    4.2610   -0.8110 n         1 MOL     -0.036488
     42 C13        -2.5730    4.4990   -1.2680 c3        1 MOL     -0.061983
     43 C14        -3.6370    3.6380   -0.6020 c         1 MOL      0.365583
     44 O6         -3.4000    2.5010   -0.1890 o         1 MOL     -0.389214
     45 C15        -2.6770    4.3160   -2.7680 c3        1 MOL     -0.122460
     46 C16        -2.0070    3.1360   -3.4400 c         1 MOL      0.608309
     47 O7         -2.1480    2.0720   -2.8100 o         1 MOL     -0.665426
     48 O8         -1.3840    3.2630   -4.5100 o         1 MOL     -0.665426
     49 H21        -1.0190    3.3700   -0.3650 hn        1 MOL      0.161815
     50 H22        -2.8590    5.5400   -1.0600 h1        1 MOL      0.083560
     51 H23        -2.3770    5.2250   -3.3020 hc        1 MOL      0.022626
     52 H24        -3.7470    4.3970   -2.9840 hc        1 MOL      0.022626
     53 N5         -4.8890    4.1000   -0.4740 n         1 MOL     -0.331109
     54 C17        -5.8460    3.4240    0.4240 c3        1 MOL     -0.088740
     55 C18        -6.8480    2.5230   -0.2650 c         1 MOL      0.671870
     56 O9         -7.9110    2.9850   -0.7280 o         1 MOL     -0.553202
     57 H25        -5.1960    4.9060   -1.0070 hn        1 MOL      0.282185
     58 H26        -6.4520    4.1190    1.0030 h1        1 MOL      0.078606
     59 H27        -5.2760    2.9150    1.1980 h1        1 MOL      0.078606
     60 N6         -6.5900    1.2110   -0.1900 n         1 MOL     -0.646297
     61 C19        -7.2690    0.1570   -0.9020 c3        1 MOL      0.242612
     62 C20        -7.3730   -1.1500   -0.0520 c         1 MOL      0.373534
     63 O10        -7.8780   -2.1700   -0.5680 o         1 MOL     -0.495045
     64 C21        -6.5410   -0.2670   -2.1940 c3        1 MOL     -0.276923
     65 C22        -5.2140   -0.9390   -1.8130 c         1 MOL      0.676683
     66 N7         -4.9860   -2.1820   -2.2090 n         1 MOL     -0.647002
     67 O11        -4.3510   -0.4340   -1.1410 o         1 MOL     -0.673701
     68 H28        -5.6660    0.9300    0.1120 hn        1 MOL      0.293666
     69 H29        -8.3030    0.4300   -1.0990 h1        1 MOL      0.088975
     70 H30        -6.3590    0.5820   -2.8530 hc        1 MOL      0.098354
     71 H31        -7.1840   -0.9900   -2.7090 hc        1 MOL      0.098354
     72 H32        -5.4260   -2.4510   -3.0760 hn        1 MOL      0.312020
     73 H33        -4.1040   -2.6230   -1.9880 hn        1 MOL      0.312020
     74 N8         -6.9160   -1.1400    1.2000 n         1 MOL     -0.354360
     75 C23        -6.8400   -2.2870    2.0650 c3        1 MOL      0.105993
     76 C24        -5.4860   -2.8130    2.5350 c         1 MOL      0.464124
     77 O12        -5.3730   -2.9750    3.7620 o         1 MOL     -0.527456
     78 H34        -6.3630   -0.3390    1.4730 hn        1 MOL      0.271740
     79 H35        -7.3450   -3.0870    1.5380 h1        1 MOL      0.034977
     80 H36        -7.3570   -2.0680    3.0040 h1        1 MOL      0.034977
     81 N9         -4.5620   -3.0570    1.5920 n         1 MOL     -0.297443
     82 C25        -3.2020   -3.5380    1.7990 c3        1 MOL      0.111937
     83 C26        -2.0320   -2.7330    1.3320 c         1 MOL      0.397182
     84 O13        -2.0760   -2.0300    0.3570 o         1 MOL     -0.419051
     85 C27        -2.9890   -4.9380    1.1910 c3        1 MOL     -0.281454
     86 C28        -3.1390   -4.9340   -0.3020 ca        1 MOL      0.075488
     87 C29        -2.0150   -4.7570   -1.1200 ca        1 MOL     -0.100061
     88 C30        -4.3350   -5.2260   -0.8770 ca        1 MOL     -0.100061
     89 C31        -2.1130   -5.0200   -2.4960 ca        1 MOL     -0.281275
     90 C32        -4.5750   -5.2930   -2.2560 ca        1 MOL     -0.281275
     91 C33        -3.3960   -5.2400   -3.0860 ca        1 MOL      0.309600
     92 O14        -3.4440   -5.5220   -4.4050 oh        1 MOL     -0.474209
     93 H37        -4.8430   -2.9100    0.6330 hn        1 MOL      0.191351
     94 H38        -3.1430   -3.6200    2.8860 h1        1 MOL      0.068208
     95 H39        -3.7580   -5.6330    1.5390 hc        1 MOL      0.102210
     96 H40        -2.0000   -5.3270    1.4310 hc        1 MOL      0.102210
     97 H41        -1.0520   -4.5350   -0.6650 ha        1 MOL      0.122644
     98 H42        -5.1260   -5.5040   -0.1860 ha        1 MOL      0.122644
     99 H43        -1.2010   -5.0850   -3.0660 ha        1 MOL      0.163178
    100 H44        -5.5940   -5.4340   -2.5810 ha        1 MOL      0.163178
    101 H45        -2.6330   -5.2130   -4.8180 ho        1 MOL      0.354199
    102 N10        -0.9490   -2.9990    2.0510 n         1 MOL     -0.329114
    103 C34         0.3960   -2.5400    1.8690 c3        1 MOL      0.001421
    104 C35         1.2530   -3.6870    1.2910 c         1 MOL      0.541635
    105 O15         1.0000   -4.8510    1.6370 o         1 MOL     -0.557270
    106 C36         0.9440   -2.0560    3.2320 c3        1 MOL      0.104716
    107 C37         0.2530   -0.8650    3.8850 c3        1 MOL      0.334169
    108 C38         2.4270   -1.6710    3.1080 c3        1 MOL     -0.303776
    109 C39         0.5040   -0.7610    5.3500 c3        1 MOL     -0.456836
    110 H46        -1.0930   -3.5400    2.8910 hn        1 MOL      0.235097
    111 H47         0.3070   -1.7020    1.1760 h1        1 MOL      0.023274
    112 H48         0.8380   -2.9610    3.8290 hc        1 MOL      0.000300
    113 H49        -0.8010   -1.1210    3.7440 hc        1 MOL     -0.033519
    114 H50         0.4380    0.0520    3.3280 hc        1 MOL     -0.033519
    115 H51         2.9300   -1.5470    4.0610 hc        1 MOL      0.067306
    116 H52         2.9890   -2.5140    2.7130 hc        1 MOL      0.067306
    117 H53         2.4790   -0.7820    2.4800 hc        1 MOL      0.067306
    118 H54         1.4900   -0.3250    5.5070 hc        1 MOL      0.098247
    119 H55        -0.1750    0.0330    5.6420 hc        1 MOL      0.098247
    120 H56         0.3930   -1.6820    5.9330 hc        1 MOL      0.098247
    121 N11         2.1580   -3.3650    0.3620 n         1 MOL     -0.269750
    122 C40         3.2330   -4.3010   -0.1170 c3        1 MOL      0.101881
    123 C41         4.6490   -3.5810    0.0170 c         1 MOL      0.308995
    124 O16         4.7390   -2.3940    0.2540 o         1 MOL     -0.257192
    125 C42         2.9570   -4.8630   -1.4940 c3        1 MOL     -0.008408
    126 O17         3.1530   -3.9100   -2.5060 oh        1 MOL     -0.554427
    127 H57         2.3480   -2.3920    0.1850 hn        1 MOL      0.158349
    128 H58         3.3160   -5.1670    0.5390 h1        1 MOL      0.032203
    129 H59         1.9830   -5.3430   -1.3760 h1        1 MOL      0.077303
    130 H60         3.6330   -5.6560   -1.8140 h1        1 MOL      0.077303
    131 H61         2.3140   -3.5530   -2.8000 ho        1 MOL      0.390953
    132 N12         5.7520   -4.3280   -0.1930 n         1 MOL     -0.387746
    133 C43         7.1250   -3.8630    0.1210 c3        1 MOL      0.144265
    134 C44         7.4840   -2.5260   -0.5580 c         1 MOL      0.508742
    135 O18         8.0980   -1.6880    0.1020 o         1 MOL     -0.511130
    136 C45         8.1130   -4.9390   -0.4120 c3        1 MOL     -0.478497
    137 H62         5.6280   -5.3150   -0.3380 hn        1 MOL      0.282407
    138 H63         7.2610   -3.7370    1.1940 h1        1 MOL      0.080780
    139 H64         8.0680   -5.8000    0.2660 hc        1 MOL      0.142120
    140 H65         7.7570   -5.1950   -1.4090 hc        1 MOL      0.142120
    141 H66         9.1000   -4.4830   -0.3760 hc        1 MOL      0.142120
    142 N13         7.0590   -2.2700   -1.8510 n         1 MOL     -0.471076
    143 C46         7.4750   -0.9900   -2.4390 c3        1 MOL      0.101639
    144 C47         6.7020    0.1360   -1.7580 c         1 MOL      0.417076
    145 O19         7.2800    1.2150   -1.7390 o         1 MOL     -0.551311
    146 C48         7.2520   -0.9390   -3.9570 c3        1 MOL     -0.259678
    147 H67         6.5270   -2.9280   -2.4050 hn        1 MOL      0.301261
    148 H68         8.5230   -0.8240   -2.1870 h1        1 MOL      0.109968
    149 H69         7.7440   -1.8140   -4.3880 hc        1 MOL      0.077906
    150 H70         6.1980   -0.9560   -4.2430 hc        1 MOL      0.077906
    151 H71         7.7210   -0.0360   -4.3400 hc        1 MOL      0.077906
    152 N14         5.5800   -0.0330   -1.0810 n         1 MOL     -0.134310
    153 C49         4.9050    0.9330   -0.2760 c3        1 MOL     -0.174432
    154 C50         5.4810    1.0370    1.1660 c         1 MOL      0.475541
    155 O20         5.5010    2.0600    1.8020 o         1 MOL     -0.535324
    156 C51         3.3930    0.7030   -0.1850 c3        1 MOL      0.153548
    157 C52         2.7040    0.3320   -1.5270 c3        1 MOL     -0.519055
    158 C53         1.1520    0.3100   -1.3440 c         1 MOL      0.926872
    159 O21         0.5590   -0.7000   -0.8230 o         1 MOL     -0.765668
    160 O22         0.4740    1.3010   -1.7270 o         1 MOL     -0.765668
    161 H72         5.2300   -0.9840   -1.1060 hn        1 MOL      0.139459
    162 H73         5.0290    1.9150   -0.7300 h1        1 MOL      0.102657
    163 H74         3.0030    1.7010    0.0400 hc        1 MOL      0.008462
    164 H75         3.1180   -0.0380    0.5600 hc        1 MOL      0.008462
    165 H76         2.9750   -0.7180   -1.6700 hc        1 MOL      0.102481
    166 H77         3.0710    1.1050   -2.1960 hc        1 MOL      0.102481
    167 N15         5.9500   -0.0660    1.7530 n         1 MOL     -0.048344
    168 C54         6.5860   -0.0860    3.1190 c3        1 MOL     -0.264423
    169 H78         7.6660   -0.1950    3.0140 h1        1 MOL      0.108429
    170 H79         6.3640    0.8470    3.6380 h1        1 MOL      0.108429
    171 H80         6.1910   -0.9240    3.6920 h1        1 MOL      0.108429
    172 H81         5.7530   -0.9540    1.3220 hn        1 MOL      0.053499
    173 Ca1        -1.7870    0.3790   -0.8270 Ca        1 MOL      1.669370
    174 O23        -1.9400   -1.1290   -2.9440 oh        1 MOL     -0.929664
    175 H82        -2.4490   -1.7750   -3.4350 ho        1 MOL      0.429778
    176 H83        -1.4740   -0.6320   -3.6230 ho        1 MOL      0.429778
@<TRIPOS>BOND
     1    1    2 1   
     2    1    4 1   
     3    1    5 1   
     4    1    6 1   
     5    2    3 2   
     6    2    7 1   
     7    7    8 1   
     8    7   15 1   
     9    8    9 1   
    10    8   11 1   
    11    8   16 1   
    12    9   10 2   
    13    9   19 1   
    14   11   12 1   
    15   11   17 1   
    16   11   18 1   
    17   12   13 1   
    18   12   14 1   
    19   19   20 1   
    20   19   28 1   
    21   20   21 1   
    22   20   23 1   
    23   20   29 1   
    24   21   22 2   
    25   21   41 1   
    26   23   24 1   
    27   23   30 1   
    28   23   31 1   
    29   24   25 1   
    30   24   32 1   
    31   24   33 1   
    32   25   26 1   
    33   25   34 1   
    34   25   35 1   
    35   26   27 1   
    36   26   36 1   
    37   26   37 1   
    38   27   38 1   
    39   27   39 1   
    40   27   40 1   
    41   41   42 1   
    42   41   49 1   
    43   42   43 1   
    44   42   45 1   
    45   42   50 1   
    46   43   44 2   
    47   43   53 1   
    48   45   46 1   
    49   45   51 1   
    50   45   52 1   
    51   46   47 1   
    52   46   48 1   
    53   53   54 1   
    54   53   57 1   
    55   54   55 1   
    56   54   58 1   
    57   54   59 1   
    58   55   56 2   
    59   55   60 1   
    60   60   61 1   
    61   60   68 1   
    62   61   62 1   
    63   61   64 1   
    64   61   69 1   
    65   62   63 2   
    66   62   74 1   
    67   64   65 1   
    68   64   70 1   
    69   64   71 1   
    70   65   66 1   
    71   65   67 2   
    72   66   72 1   
    73   66   73 1   
    74   74   75 1   
    75   74   78 1   
    76   75   76 1   
    77   75   79 1   
    78   75   80 1   
    79   76   77 2   
    80   76   81 1   
    81   81   82 1   
    82   81   93 1   
    83   82   83 1   
    84   82   85 1   
    85   82   94 1   
    86   83   84 2   
    87   83  102 1   
    88   85   86 1   
    89   85   95 1   
    90   85   96 1   
    91   86   87 ar  
    92   86   88 ar  
    93   87   89 ar  
    94   87   97 1   
    95   88   90 ar  
    96   88   98 1   
    97   89   91 ar  
    98   89   99 1   
    99   90   91 ar  
   100   90  100 1   
   101   91   92 1   
   102   92  101 1   
   103  102  103 1   
   104  102  110 1   
   105  103  104 1   
   106  103  106 1   
   107  103  111 1   
   108  104  105 2   
   109  104  121 1   
   110  106  107 1   
   111  106  108 1   
   112  106  112 1   
   113  107  109 1   
   114  107  113 1   
   115  107  114 1   
   116  108  115 1   
   117  108  116 1   
   118  108  117 1   
   119  109  118 1   
   120  109  119 1   
   121  109  120 1   
   122  121  122 1   
   123  121  127 1   
   124  122  123 1   
   125  122  125 1   
   126  122  128 1   
   127  123  124 2   
   128  123  132 1   
   129  125  126 1   
   130  125  129 1   
   131  125  130 1   
   132  126  131 1   
   133  132  133 1   
   134  132  137 1   
   135  133  134 1   
   136  133  136 1   
   137  133  138 1   
   138  134  135 2   
   139  134  142 1   
   140  136  139 1   
   141  136  140 1   
   142  136  141 1   
   143  142  143 1   
   144  142  147 1   
   145  143  144 1   
   146  143  146 1   
   147  143  148 1   
   148  144  145 2   
   149  144  152 1   
   150  146  149 1   
   151  146  150 1   
   152  146  151 1   
   153  152  153 1   
   154  152  161 1   
   155  153  154 1   
   156  153  156 1   
   157  153  162 1   
   158  154  155 2   
   159  154  167 1   
   160  156  157 1   
   161  156  163 1   
   162  156  164 1   
   163  157  158 1   
   164  157  165 1   
   165  157  166 1   
   166  158  159 1   
   167  158  160 1   
   168  167  168 1   
   169  167  172 1   
   170  168  169 1   
   171  168  170 1   
   172  168  171 1   
   173  174  175 1   
   174  174  176 1   
@<TRIPOS>SUBSTRUCTURE
     1 MOL         1 TEMP              0 ****  ****    0 ROOT
