@<TRIPOS>MOLECULE
MOL
  189   185     1     0     0
SMALL
resp


@<TRIPOS>ATOM
      1 C1          0.4480   -4.0560    6.1290 c3        1 MOL     -0.476904
      2 C2          0.8320   -3.5590    4.7890 c         1 MOL      0.710384
      3 O1          0.6980   -2.3420    4.4960 o         1 MOL     -0.614855
      4 H1          0.5060   -5.1440    6.1430 hc        1 MOL      0.119699
      5 H2          1.1280   -3.6480    6.8770 hc        1 MOL      0.119699
      6 H3         -0.5720   -3.7440    6.3540 hc        1 MOL      0.119699
      7 N1          1.3340   -4.4500    3.9390 n         1 MOL     -0.492810
      8 C3          1.9540   -4.0320    2.6720 c3        1 MOL      0.086814
      9 C4          1.7380   -4.9940    1.4780 c         1 MOL      0.454655
     10 O2          1.9030   -6.1700    1.6750 o         1 MOL     -0.571170
     11 C5          3.4840   -3.9960    2.7990 c3        1 MOL     -0.400747
     12 C6          4.1440   -3.2070    1.6480 c         1 MOL      0.865465
     13 O3          3.4620   -2.5620    0.7920 o         1 MOL     -0.717348
     14 O4          5.3440   -3.0310    1.7670 o         1 MOL     -0.717348
     15 H4          1.3870   -5.4260    4.1840 hn        1 MOL      0.301968
     16 H5          1.4920   -3.0950    2.3620 h1        1 MOL      0.084342
     17 H6          3.9490   -4.9830    2.8380 hc        1 MOL      0.106546
     18 H7          3.6380   -3.5440    3.7720 hc        1 MOL      0.106546
     19 N2          1.3970   -4.5960    0.2520 n         1 MOL     -0.097933
     20 C7          1.1720   -5.4850   -0.9440 c3        1 MOL     -0.326807
     21 C8          1.9900   -5.1880   -2.2170 c         1 MOL      0.551531
     22 O5          2.0480   -6.0090   -3.1020 o         1 MOL     -0.583251
     23 C9         -0.3500   -5.6310   -1.1700 c3        1 MOL      0.319507
     24 C10        -0.9510   -4.5240   -1.9120 c3        1 MOL     -0.056881
     25 C11        -1.1310   -5.9760    0.0780 c3        1 MOL     -0.321590
     26 C12        -2.4380   -4.7190   -2.2880 c3        1 MOL     -0.151780
     27 H8          1.0960   -3.6420    0.1490 hn        1 MOL      0.144589
     28 H9          1.6210   -6.4440   -0.6690 h1        1 MOL      0.131649
     29 H10        -0.5100   -6.5130   -1.8030 hc        1 MOL     -0.044689
     30 H11        -0.3310   -4.4000   -2.8060 hc        1 MOL      0.028474
     31 H12        -0.8980   -3.6780   -1.2370 hc        1 MOL      0.028474
     32 H13        -0.4800   -6.5760    0.7100 hc        1 MOL      0.064214
     33 H14        -1.2160   -5.0720    0.6650 hc        1 MOL      0.064214
     34 H15        -2.1280   -6.3940   -0.0560 hc        1 MOL      0.064214
     35 H16        -2.5350   -5.6330   -2.8820 hc        1 MOL      0.046384
     36 H17        -3.0670   -4.7880   -1.4000 hc        1 MOL      0.046384
     37 H18        -2.7640   -3.9040   -2.9290 hc        1 MOL      0.046384
     38 N3          2.5370   -3.9920   -2.3290 n         1 MOL     -0.217958
     39 C13         3.2450   -3.5000   -3.5350 c3        1 MOL     -0.052737
     40 C14         4.7030   -3.1800   -3.2920 c         1 MOL      0.361004
     41 O6          5.4950   -3.1190   -4.2580 o         1 MOL     -0.551602
     42 C15         2.4180   -2.3210   -4.1460 c3        1 MOL     -0.145253
     43 C16         2.1140   -1.2840   -3.0410 c         1 MOL      0.594382
     44 O7          2.8200   -1.1820   -1.9970 o         1 MOL     -0.657921
     45 O8          1.1770   -0.4420   -3.2480 o         1 MOL     -0.657921
     46 H19         2.4980   -3.3900   -1.5190 hn        1 MOL      0.153369
     47 H20         3.2700   -4.3430   -4.2370 h1        1 MOL      0.117202
     48 H21         1.5090   -2.6470   -4.6370 hc        1 MOL      0.068194
     49 H22         2.9380   -1.8650   -4.9920 hc        1 MOL      0.068194
     50 N4          5.1700   -3.1760   -2.0940 n         1 MOL     -0.085217
     51 C17         6.5310   -2.7040   -1.7330 c3        1 MOL     -0.242731
     52 C18         6.9190   -1.3330   -2.0770 c         1 MOL      0.518689
     53 O9          8.1120   -0.9860   -2.2880 o         1 MOL     -0.601693
     54 H23         4.5510   -3.2540   -1.3020 hn        1 MOL      0.081240
     55 H24         7.2280   -3.3460   -2.2820 h1        1 MOL      0.112663
     56 H25         6.5810   -2.8800   -0.6540 h1        1 MOL      0.112663
     57 N5          5.9870   -0.3570   -2.1590 n         1 MOL     -0.094498
     58 C19         6.2870    0.9440   -2.6680 c3        1 MOL     -0.291084
     59 C20         6.9930    2.0110   -1.8340 c         1 MOL      0.457737
     60 O10         7.3390    3.0810   -2.3310 o         1 MOL     -0.539730
     61 C21         5.0070    1.5740   -3.2660 c3        1 MOL     -0.125751
     62 C22         3.8660    1.8790   -2.3450 c         1 MOL      0.929912
     63 O11         3.7540    1.5350   -1.1370 o         1 MOL     -0.780057
     64 O12         2.9720    2.5950   -2.8130 o         1 MOL     -0.780057
     65 H26         5.0370   -0.5290   -1.8660 hn        1 MOL      0.216944
     66 H27         7.0000    0.8280   -3.4840 h1        1 MOL      0.152372
     67 H28         4.5890    0.8830   -4.0040 hc        1 MOL      0.047998
     68 H29         5.1990    2.4590   -3.8650 hc        1 MOL      0.047998
     69 N6          7.1560    1.8570   -0.5230 n         1 MOL     -0.127834
     70 C23         7.4880    2.8460    0.4080 c3        1 MOL     -0.166877
     71 C24         6.4140    3.7260    1.0600 c         1 MOL      0.619319
     72 O13         6.7500    4.7100    1.6180 o         1 MOL     -0.593945
     73 H30         7.0030    0.9400   -0.1420 hn        1 MOL      0.162846
     74 H31         8.1320    3.4540   -0.2370 h1        1 MOL      0.063917
     75 H32         8.1020    2.3540    1.1520 h1        1 MOL      0.063917
     76 N7          5.1410    3.2970    0.9790 n         1 MOL     -0.339229
     77 C25         3.8890    4.0090    1.2860 c3        1 MOL      0.045225
     78 C26         2.7570    3.1070    1.8330 c         1 MOL      0.324109
     79 O14         2.9480    1.9240    1.8810 o         1 MOL     -0.388848
     80 C27         3.4210    4.8890    0.0960 c3        1 MOL      0.032117
     81 C28         4.1870    6.2910    0.1160 c3        1 MOL     -0.444437
     82 C29         3.5020    7.3780   -0.6530 c         1 MOL      0.762831
     83 N8          3.6390    7.3800   -1.9460 n         1 MOL     -0.823350
     84 O15         2.9960    8.3560   -0.1750 o         1 MOL     -0.618809
     85 H33         4.9980    2.3550    0.6410 hn        1 MOL      0.173816
     86 H34         4.0950    4.6740    2.1310 h1        1 MOL      0.050932
     87 H35         2.3480    5.0140   -0.0140 hc        1 MOL      0.058739
     88 H36         3.8200    4.3330   -0.7570 hc        1 MOL      0.058739
     89 H37         5.1580    6.0120   -0.2770 hc        1 MOL      0.130438
     90 H38         4.3720    6.6380    1.1330 hc        1 MOL      0.130438
     91 H39         4.1920    6.6160   -2.2950 hn        1 MOL      0.369885
     92 H40         3.2690    8.1880   -2.4190 hn        1 MOL      0.369885
     93 N9          1.6520    3.6790    2.2270 n         1 MOL     -0.327155
     94 C30         0.4110    2.9320    2.4390 c3        1 MOL      0.069061
     95 C31        -0.6940    3.4690    1.5960 c         1 MOL      0.420460
     96 O16        -0.8660    4.6910    1.4210 o         1 MOL     -0.562377
     97 C32        -0.0550    3.0070    3.9450 c3        1 MOL      0.142987
     98 C33        -1.5330    2.7090    4.2150 c3        1 MOL     -0.226652
     99 C34         0.7410    1.9200    4.7360 c3        1 MOL     -0.226652
    100 H41         1.6630    4.6880    2.2220 hn        1 MOL      0.248099
    101 H42         0.5760    1.9180    2.0860 h1        1 MOL     -0.003829
    102 H43         0.1910    4.0000    4.3070 hc        1 MOL     -0.001470
    103 H44        -1.8030    3.1180    5.1860 hc        1 MOL      0.046582
    104 H45        -2.1580    3.2970    3.5470 hc        1 MOL      0.046582
    105 H46        -1.8980    1.6960    4.0870 hc        1 MOL      0.046582
    106 H47         0.4140    0.9400    4.3740 hc        1 MOL      0.046582
    107 H48         1.8050    1.9060    4.5110 hc        1 MOL      0.046582
    108 H49         0.4640    2.0530    5.7850 hc        1 MOL      0.046582
    109 N10        -1.4460    2.4870    1.1070 n         1 MOL     -0.082188
    110 C35        -2.5530    2.5620    0.1310 c3        1 MOL      0.012992
    111 C36        -3.9520    2.4380    0.8690 c         1 MOL      0.327243
    112 O17        -4.0280    1.9130    1.9680 o         1 MOL     -0.408223
    113 C37        -2.4480    1.4390   -0.9240 c3        1 MOL     -0.464784
    114 C38        -3.5030    1.5370   -2.0950 c         1 MOL      0.702466
    115 N11        -3.6400    2.6810   -2.7250 n         1 MOL     -0.786554
    116 O18        -4.3190    0.6660   -2.3440 o         1 MOL     -0.497101
    117 H50        -1.2300    1.5600    1.4620 hn        1 MOL      0.141332
    118 H51        -2.5530    3.5680   -0.2970 h1        1 MOL      0.044878
    119 H52        -2.5600    0.4810   -0.4220 hc        1 MOL      0.188349
    120 H53        -1.4210    1.5850   -1.2510 hc        1 MOL      0.188349
    121 H54        -2.9560    3.4040   -2.5620 hn        1 MOL      0.365699
    122 H55        -4.2680    2.7210   -3.5150 hn        1 MOL      0.365699
    123 N12        -5.0060    2.7930    0.1740 n         1 MOL     -0.151671
    124 C39        -6.3600    2.6700    0.6400 c3        1 MOL      0.042824
    125 C40        -6.7320    1.1970    0.7620 c         1 MOL      0.487937
    126 O19        -7.5130    0.8780    1.6860 o         1 MOL     -0.581902
    127 C41        -7.3570    3.4310   -0.1700 c3        1 MOL     -0.057018
    128 C42        -7.4780    3.0700   -1.6610 ca        1 MOL      0.145619
    129 C43        -8.3520    2.0440   -2.1590 ca        1 MOL     -0.358384
    130 C44        -6.5400    3.7430   -2.5030 ca        1 MOL     -0.358384
    131 C45        -8.3000    1.7180   -3.5240 ca        1 MOL     -0.121911
    132 C46        -6.4980    3.3860   -3.8640 ca        1 MOL     -0.121911
    133 C47        -7.3890    2.3960   -4.3410 ca        1 MOL      0.265206
    134 O20        -7.4920    2.1390   -5.6650 oh        1 MOL     -0.507647
    135 H56        -4.9730    3.2440   -0.7330 hn        1 MOL      0.113416
    136 H57        -6.5060    3.0310    1.6590 h1        1 MOL      0.060879
    137 H58        -7.0330    4.4650   -0.1670 hc        1 MOL      0.023005
    138 H59        -8.3750    3.4460    0.2160 hc        1 MOL      0.023005
    139 H60        -9.0620    1.5680   -1.4970 ha        1 MOL      0.200447
    140 H61        -5.9400    4.5320   -2.0790 ha        1 MOL      0.200447
    141 H62        -8.9600    1.0770   -4.0830 ha        1 MOL      0.117563
    142 H63        -6.0190    4.0550   -4.5620 ha        1 MOL      0.117563
    143 H64        -8.2910    1.5970   -5.7020 ho        1 MOL      0.399251
    144 N13        -6.2000    0.2530   -0.0830 n         1 MOL     -0.236458
    145 C48        -6.3760   -1.1800    0.1760 c3        1 MOL     -0.280397
    146 C49        -5.2790   -1.7470    1.1470 c         1 MOL      0.670680
    147 O21        -5.1840   -2.9480    1.2510 o         1 MOL     -0.559706
    148 C50        -6.2740   -1.9150   -1.2090 c3        1 MOL      0.096812
    149 C51        -7.5180   -1.8260   -2.0440 c3        1 MOL     -0.209083
    150 C52        -7.4340   -2.7460   -3.2550 c         1 MOL      0.677171
    151 O22        -8.0810   -3.8350   -3.2730 o         1 MOL     -0.732869
    152 O23        -6.8530   -2.3160   -4.3100 o         1 MOL     -0.732869
    153 H65        -5.6150    0.5430   -0.8510 hn        1 MOL      0.362726
    154 H66        -7.3810   -1.4050    0.5340 h1        1 MOL      0.148749
    155 H67        -6.0860   -2.9850   -1.1120 hc        1 MOL      0.016736
    156 H68        -5.3970   -1.4890   -1.6920 hc        1 MOL      0.016736
    157 H69        -7.7180   -0.8070   -2.3580 hc        1 MOL      0.025519
    158 H70        -8.4180   -2.1400   -1.5110 hc        1 MOL      0.025519
    159 N14        -4.6110   -0.9090    1.9600 n         1 MOL     -0.333368
    160 C53        -3.7600   -1.3970    3.0760 c3        1 MOL     -0.103795
    161 C54        -4.0990   -0.8730    4.4420 c         1 MOL      0.577042
    162 O24        -3.8920   -1.4560    5.4700 o         1 MOL     -0.557147
    163 C55        -2.3120   -0.9590    2.7810 c3        1 MOL      0.035680
    164 C56        -1.7000   -1.7410    1.5860 c3        1 MOL     -0.082248
    165 C57        -0.2670   -1.3010    1.2410 c         1 MOL      0.591917
    166 O25         0.1480   -0.2070    1.7570 o         1 MOL     -0.628964
    167 O26         0.4520   -1.8020    0.3620 o         1 MOL     -0.628964
    168 H71        -4.5660    0.0870    1.7830 hn        1 MOL     -0.077843
    169 H72        -3.7480   -2.4700    3.2190 h1        1 MOL      0.103825
    170 H73        -1.7550   -1.1180    3.6940 hc        1 MOL      0.064280
    171 H74        -2.2600    0.1100    2.5590 hc        1 MOL      0.064280
    172 H75        -2.3640   -1.6300    0.7230 hc        1 MOL      0.038941
    173 H76        -1.5850   -2.7880    1.8600 hc        1 MOL      0.038941
    174 N15        -4.8430    0.2660    4.5060 n         1 MOL     -0.309971
    175 C58        -5.1210    0.9800    5.8400 c3        1 MOL     -0.164209
    176 H77        -5.5870    1.9460    5.6440 h1        1 MOL      0.078497
    177 H78        -5.7910    0.3710    6.4460 h1        1 MOL      0.078497
    178 H79        -4.1830    1.1300    6.3740 h1        1 MOL      0.078497
    179 H80        -4.9830    0.8000    3.6670 hn        1 MOL      0.276196
    180 Ca1         2.5040   -0.2510    0.4670 Ca        1 MOL      1.712814
    181 O27         5.1890   -0.2480    1.2140 oh        1 MOL     -0.908953
    182 H81         5.2710   -1.1970    1.1220 ho        1 MOL      0.428057
    183 H82         5.8690   -0.0080    1.8500 ho        1 MOL      0.428057
    184 O28         2.8210   -0.6440    3.1010 oh        1 MOL     -0.908953
    185 H83         2.0830   -1.1120    3.4780 ho        1 MOL      0.428057
    186 H84         3.1530   -0.0990    3.8220 ho        1 MOL      0.428057
    187 O29         1.0270    1.3730   -1.2470 oh        1 MOL     -0.908953
    188 H85         1.7630    1.9460   -1.4550 ho        1 MOL      0.428057
    189 H86         0.8270    0.9310   -2.0790 ho        1 MOL      0.428057
@<TRIPOS>BOND
     1    1    2 1   
     2    1    4 1   
     3    1    5 1   
     4    1    6 1   
     5    2    3 2   
     6    2    7 1   
     7    7    8 1   
     8    7   15 1   
     9    8    9 1   
    10    8   11 1   
    11    8   16 1   
    12    9   10 2   
    13    9   19 1   
    14   11   12 1   
    15   11   17 1   
    16   11   18 1   
    17   12   13 1   
    18   12   14 1   
    19   19   20 1   
    20   19   27 1   
    21   20   21 1   
    22   20   23 1   
    23   20   28 1   
    24   21   22 2   
    25   21   38 1   
    26   23   24 1   
    27   23   25 1   
    28   23   29 1   
    29   24   26 1   
    30   24   30 1   
    31   24   31 1   
    32   25   32 1   
    33   25   33 1   
    34   25   34 1   
    35   26   35 1   
    36   26   36 1   
    37   26   37 1   
    38   38   39 1   
    39   38   46 1   
    40   39   40 1   
    41   39   42 1   
    42   39   47 1   
    43   40   41 2   
    44   40   50 1   
    45   42   43 1   
    46   42   48 1   
    47   42   49 1   
    48   43   44 1   
    49   43   45 1   
    50   50   51 1   
    51   50   54 1   
    52   51   52 1   
    53   51   55 1   
    54   51   56 1   
    55   52   53 2   
    56   52   57 1   
    57   57   58 1   
    58   57   65 1   
    59   58   59 1   
    60   58   61 1   
    61   58   66 1   
    62   59   60 2   
    63   59   69 1   
    64   61   62 1   
    65   61   67 1   
    66   61   68 1   
    67   62   63 1   
    68   62   64 1   
    69   69   70 1   
    70   69   73 1   
    71   70   71 1   
    72   70   74 1   
    73   70   75 1   
    74   71   72 2   
    75   71   76 1   
    76   76   77 1   
    77   76   85 1   
    78   77   78 1   
    79   77   80 1   
    80   77   86 1   
    81   78   79 2   
    82   78   93 1   
    83   80   81 1   
    84   80   87 1   
    85   80   88 1   
    86   81   82 1   
    87   81   89 1   
    88   81   90 1   
    89   82   83 1   
    90   82   84 2   
    91   83   91 1   
    92   83   92 1   
    93   93   94 1   
    94   93  100 1   
    95   94   95 1   
    96   94   97 1   
    97   94  101 1   
    98   95   96 2   
    99   95  109 1   
   100   97   98 1   
   101   97   99 1   
   102   97  102 1   
   103   98  103 1   
   104   98  104 1   
   105   98  105 1   
   106   99  106 1   
   107   99  107 1   
   108   99  108 1   
   109  109  110 1   
   110  109  117 1   
   111  110  111 1   
   112  110  113 1   
   113  110  118 1   
   114  111  112 2   
   115  111  123 1   
   116  113  114 1   
   117  113  119 1   
   118  113  120 1   
   119  114  115 1   
   120  114  116 2   
   121  115  121 1   
   122  115  122 1   
   123  123  124 1   
   124  123  135 1   
   125  124  125 1   
   126  124  127 1   
   127  124  136 1   
   128  125  126 2   
   129  125  144 1   
   130  127  128 1   
   131  127  137 1   
   132  127  138 1   
   133  128  129 ar  
   134  128  130 ar  
   135  129  131 ar  
   136  129  139 1   
   137  130  132 ar  
   138  130  140 1   
   139  131  133 ar  
   140  131  141 1   
   141  132  133 ar  
   142  132  142 1   
   143  133  134 1   
   144  134  143 1   
   145  144  145 1   
   146  144  153 1   
   147  145  146 1   
   148  145  148 1   
   149  145  154 1   
   150  146  147 2   
   151  146  159 1   
   152  148  149 1   
   153  148  155 1   
   154  148  156 1   
   155  149  150 1   
   156  149  157 1   
   157  149  158 1   
   158  150  151 1   
   159  150  152 1   
   160  159  160 1   
   161  159  168 1   
   162  160  161 1   
   163  160  163 1   
   164  160  169 1   
   165  161  162 2   
   166  161  174 1   
   167  163  164 1   
   168  163  170 1   
   169  163  171 1   
   170  164  165 1   
   171  164  172 1   
   172  164  173 1   
   173  165  166 1   
   174  165  167 1   
   175  174  175 1   
   176  174  179 1   
   177  175  176 1   
   178  175  177 1   
   179  175  178 1   
   180  181  182 1   
   181  181  183 1   
   182  184  185 1   
   183  184  186 1   
   184  187  188 1   
   185  187  189 1   
@<TRIPOS>SUBSTRUCTURE
     1 MOL         1 TEMP              0 ****  ****    0 ROOT
