@<TRIPOS>MOLECULE
MOL
  189   185     1     0     0
SMALL
resp


@<TRIPOS>ATOM
      1 C1          1.0970   -3.0660    6.2980 c3        1 MOL     -0.419302
      2 C2          1.1720   -2.8760    4.7610 c         1 MOL      0.852521
      3 O1          0.7250   -1.8810    4.1790 o         1 MOL     -0.692201
      4 H1          0.7380   -4.0710    6.5220 hc        1 MOL      0.102270
      5 H2          2.0870   -2.9310    6.7300 hc        1 MOL      0.102270
      6 H3          0.4110   -2.3330    6.7230 hc        1 MOL      0.102270
      7 N1          1.8030   -3.8040    4.0370 n         1 MOL     -0.730470
      8 C3          2.4300   -3.5460    2.7020 c3        1 MOL      0.332794
      9 C4          2.4370   -4.8740    1.9110 c         1 MOL      0.408004
     10 O2          2.7490   -5.9170    2.4610 o         1 MOL     -0.582580
     11 C5          3.9320   -3.1480    2.8730 c3        1 MOL     -0.104681
     12 C6          4.6710   -2.6880    1.6310 c         1 MOL      0.718662
     13 O3          3.9710   -2.4150    0.6280 o         1 MOL     -0.686267
     14 O4          5.9090   -2.7000    1.6820 o         1 MOL     -0.686267
     15 H4          2.1200   -4.6550    4.4640 hn        1 MOL      0.326705
     16 H5          1.9020   -2.7530    2.1770 h1        1 MOL      0.046267
     17 H6          4.4730   -3.8490    3.5130 hc        1 MOL     -0.013862
     18 H7          3.7990   -2.3350    3.5790 hc        1 MOL     -0.013862
     19 N2          2.1120   -4.7040    0.6540 n         1 MOL      0.007675
     20 C7          2.3060   -5.8120   -0.3140 c3        1 MOL     -0.025279
     21 C8          3.2260   -5.3950   -1.5620 c         1 MOL      0.388815
     22 O5          3.8540   -6.3170   -2.1210 o         1 MOL     -0.584555
     23 C9          0.9430   -6.3210   -0.8370 c3        1 MOL      0.151232
     24 C10         0.1770   -5.1990   -1.7090 c3        1 MOL      0.061285
     25 C11         0.1010   -6.7670    0.3410 c3        1 MOL     -0.209342
     26 C12        -1.1460   -5.6650   -2.2540 c3        1 MOL     -0.209136
     27 H8          1.9170   -3.7710    0.3110 hn        1 MOL     -0.196340
     28 H9          2.8120   -6.6440    0.1830 h1        1 MOL      0.077844
     29 H10         1.1700   -7.1350   -1.5310 hc        1 MOL     -0.028853
     30 H11         0.8810   -5.0240   -2.5310 hc        1 MOL      0.007200
     31 H12         0.0320   -4.2150   -1.2450 hc        1 MOL      0.007200
     32 H13        -0.3970   -5.9140    0.8010 hc        1 MOL      0.040875
     33 H14        -0.7120   -7.3490   -0.0860 hc        1 MOL      0.040875
     34 H15         0.5600   -7.4650    1.0400 hc        1 MOL      0.040875
     35 H16        -1.9040   -5.5550   -1.4820 hc        1 MOL      0.043192
     36 H17        -1.3320   -5.0910   -3.1560 hc        1 MOL      0.043192
     37 H18        -1.1180   -6.7240   -2.5230 hc        1 MOL      0.043192
     38 N3          3.4240   -4.1370   -1.9040 n         1 MOL     -0.029959
     39 C13         4.1090   -3.7930   -3.0830 c3        1 MOL     -0.078144
     40 C14         5.3900   -3.0010   -2.9750 c         1 MOL      0.409636
     41 O6          6.0950   -2.7040   -3.9390 o         1 MOL     -0.552785
     42 C15         3.2570   -2.8610   -3.9290 c3        1 MOL     -0.092859
     43 C16         2.6540   -1.6360   -3.3110 c         1 MOL      0.719644
     44 O7          3.1940   -1.1960   -2.2650 o         1 MOL     -0.676016
     45 O8          1.8630   -0.8930   -3.9210 o         1 MOL     -0.676016
     46 H19         3.0740   -3.3720   -1.3420 hn        1 MOL      0.132330
     47 H20         4.3890   -4.7160   -3.5890 h1        1 MOL      0.115163
     48 H21         2.4060   -3.4930   -4.1540 hc        1 MOL      0.020516
     49 H22         3.6910   -2.5900   -4.8950 hc        1 MOL      0.020516
     50 N4          5.8620   -2.6690   -1.7460 n         1 MOL     -0.213851
     51 C17         7.2150   -2.0290   -1.4440 c3        1 MOL     -0.273439
     52 C18         7.3390   -0.5540   -1.9340 c         1 MOL      0.541812
     53 O9          8.4700   -0.1240   -2.0860 o         1 MOL     -0.605221
     54 H23         5.2390   -2.9430   -0.9880 hn        1 MOL      0.180080
     55 H24         7.9710   -2.5650   -2.0190 h1        1 MOL      0.129902
     56 H25         7.4340   -2.1520   -0.3780 h1        1 MOL      0.129902
     57 N5          6.2330    0.1850   -2.1320 n         1 MOL     -0.141313
     58 C19         6.3200    1.5590   -2.6830 c3        1 MOL     -0.018827
     59 C20         6.5550    2.6940   -1.6030 c         1 MOL      0.403985
     60 O10         6.5900    3.9050   -1.9690 o         1 MOL     -0.542164
     61 C21         4.9800    1.8960   -3.3920 c3        1 MOL     -0.219624
     62 C22         3.7050    2.2010   -2.6420 c         1 MOL      0.873207
     63 O11         3.5670    1.8100   -1.4580 o         1 MOL     -0.732704
     64 O12         2.7500    2.7310   -3.2210 o         1 MOL     -0.732704
     65 H26         5.3250   -0.2280   -1.9750 hn        1 MOL      0.150276
     66 H27         7.0680    1.6600   -3.4670 h1        1 MOL      0.105270
     67 H28         4.8310    1.1040   -4.1200 hc        1 MOL      0.052774
     68 H29         5.1250    2.8220   -3.9440 hc        1 MOL      0.052774
     69 N6          6.7540    2.3000   -0.4000 n         1 MOL     -0.301447
     70 C23         6.9940    3.2340    0.7260 c3        1 MOL     -0.067049
     71 C24         5.7520    3.9820    1.3030 c         1 MOL      0.304821
     72 O13         5.9130    4.8040    2.2490 o         1 MOL     -0.552164
     73 H30         6.6700    1.3260   -0.1780 hn        1 MOL      0.230042
     74 H31         7.7030    4.0280    0.5350 h1        1 MOL      0.098431
     75 H32         7.5090    2.7410    1.5480 h1        1 MOL      0.098431
     76 N7          4.5250    3.7840    0.7630 n         1 MOL     -0.009136
     77 C25         3.2520    4.3720    1.2880 c3        1 MOL     -0.015783
     78 C26         2.1160    3.3940    1.6210 c         1 MOL      0.549813
     79 O14         2.0570    2.3300    0.9760 o         1 MOL     -0.579124
     80 C27         2.8720    5.4330    0.2140 c3        1 MOL     -0.001116
     81 C28         3.9590    6.4430   -0.1880 c3        1 MOL     -0.223114
     82 C29         3.5180    7.7780   -0.7450 c         1 MOL      0.690666
     83 N8          4.3940    8.5830   -1.2360 n         1 MOL     -0.775755
     84 O15         2.3440    8.0720   -0.7350 o         1 MOL     -0.587801
     85 H33         4.3500    3.0070    0.1400 hn        1 MOL      0.037338
     86 H34         3.4950    4.8590    2.2270 h1        1 MOL      0.023315
     87 H35         2.0810    6.0840    0.5780 hc        1 MOL      0.042999
     88 H36         2.4610    4.8960   -0.6410 hc        1 MOL      0.042999
     89 H37         4.5850    6.1140   -1.0210 hc        1 MOL      0.078027
     90 H38         4.5530    6.6150    0.7050 hc        1 MOL      0.078027
     91 H39         5.3520    8.2760   -1.2020 hn        1 MOL      0.345962
     92 H40         4.1040    9.4990   -1.5450 hn        1 MOL      0.345962
     93 N9          1.0690    3.7070    2.4340 n         1 MOL     -0.571048
     94 C30        -0.0940    2.8070    2.6910 c3        1 MOL      0.063418
     95 C31        -1.2140    3.1510    1.7750 c         1 MOL      0.477814
     96 O16        -1.7680    4.2590    1.7870 o         1 MOL     -0.596498
     97 C32        -0.3980    2.6480    4.2370 c3        1 MOL      0.046269
     98 C33        -0.7270    4.0230    4.8730 c3        1 MOL     -0.149695
     99 C34        -1.4980    1.6300    4.5250 c3        1 MOL     -0.149695
    100 H41         1.0380    4.6300    2.8390 hn        1 MOL      0.336064
    101 H42         0.1600    1.7950    2.3860 h1        1 MOL      0.138505
    102 H43         0.5510    2.3170    4.6770 hc        1 MOL      0.024096
    103 H44        -1.5380    4.5810    4.4150 hc        1 MOL      0.031322
    104 H45        -1.0050    4.0760    5.9190 hc        1 MOL      0.031322
    105 H46         0.1840    4.6050    4.7530 hc        1 MOL      0.031322
    106 H47        -1.3740    1.4000    5.5830 hc        1 MOL      0.031322
    107 H48        -2.4710    2.0720    4.3410 hc        1 MOL      0.031322
    108 H49        -1.2780    0.7550    3.9130 hc        1 MOL      0.031322
    109 N10        -1.4820    2.2590    0.8860 n         1 MOL     -0.019596
    110 C35        -2.6030    2.3050   -0.0260 c3        1 MOL      0.018469
    111 C36        -3.9390    2.0470    0.7000 c         1 MOL      0.176980
    112 O17        -3.9160    1.3220    1.6890 o         1 MOL     -0.371827
    113 C37        -2.4520    1.2910   -1.2080 c3        1 MOL     -0.031266
    114 C38        -3.6350    1.3110   -2.1930 c         1 MOL      0.726315
    115 N11        -3.8040    2.4110   -2.9790 n         1 MOL     -0.902915
    116 O18        -4.5210    0.4680   -2.2540 o         1 MOL     -0.507482
    117 H50        -0.8090    1.5170    0.7760 hn        1 MOL      0.093685
    118 H51        -2.6830    3.2870   -0.4950 h1        1 MOL      0.012128
    119 H52        -2.5630    0.2750   -0.8280 hc        1 MOL      0.005644
    120 H53        -1.5310    1.4110   -1.7780 hc        1 MOL      0.005644
    121 H54        -3.0750    3.1080   -3.0050 hn        1 MOL      0.390759
    122 H55        -4.5250    2.3780   -3.6760 hn        1 MOL      0.390759
    123 N12        -5.0240    2.5580    0.1930 n         1 MOL     -0.034592
    124 C39        -6.3230    2.4310    0.7830 c3        1 MOL     -0.022625
    125 C40        -6.8100    0.9760    0.8570 c         1 MOL      0.462950
    126 O19        -7.5750    0.6690    1.7670 o         1 MOL     -0.562219
    127 C41        -7.4380    3.2460    0.0710 c3        1 MOL     -0.123326
    128 C42        -7.9390    2.6240   -1.1690 ca        1 MOL      0.191652
    129 C43        -9.1350    1.9660   -1.3150 ca        1 MOL     -0.205192
    130 C44        -7.2530    2.9760   -2.3710 ca        1 MOL     -0.205192
    131 C45        -9.5740    1.5240   -2.6070 ca        1 MOL     -0.365008
    132 C46        -7.7360    2.6620   -3.7030 ca        1 MOL     -0.365008
    133 C47        -8.8400    1.8490   -3.7910 ca        1 MOL      0.441316
    134 O20        -9.3750    1.5210   -5.0120 oh        1 MOL     -0.494695
    135 H56        -4.9230    3.2750   -0.5190 hn        1 MOL      0.158357
    136 H57        -6.1700    2.6940    1.8390 h1        1 MOL      0.078077
    137 H58        -7.1120    4.2510   -0.1920 hc        1 MOL      0.033509
    138 H59        -8.3160    3.3310    0.7070 hc        1 MOL      0.033509
    139 H60        -9.6840    1.6170   -0.4480 ha        1 MOL      0.151511
    140 H61        -6.2790    3.4310   -2.2790 ha        1 MOL      0.151511
    141 H62       -10.4280    0.8550   -2.6750 ha        1 MOL      0.183735
    142 H63        -7.2650    2.9920   -4.6150 ha        1 MOL      0.183735
    143 H64       -10.3270    1.4290   -4.9610 ho        1 MOL      0.357001
    144 N13        -6.3960   -0.0180    0.0360 n         1 MOL     -0.158240
    145 C48        -6.7600   -1.4320    0.2650 c3        1 MOL     -0.019841
    146 C49        -5.7820   -2.0990    1.2510 c         1 MOL      0.329923
    147 O21        -6.1370   -3.0450    1.9070 o         1 MOL     -0.513189
    148 C50        -6.8470   -2.2300   -1.0670 c3        1 MOL      0.015603
    149 C51        -7.7650   -1.6900   -2.1420 c3        1 MOL     -0.204626
    150 C52        -7.7960   -2.5600   -3.4430 c         1 MOL      0.730190
    151 O22        -7.2780   -2.1150   -4.4530 o         1 MOL     -0.740778
    152 O23        -8.3920   -3.7040   -3.4070 o         1 MOL     -0.740778
    153 H65        -6.0810    0.2310   -0.8940 hn        1 MOL      0.107562
    154 H66        -7.7370   -1.5770    0.7190 h1        1 MOL      0.079851
    155 H67        -7.1420   -3.2620   -0.8650 hc        1 MOL      0.021647
    156 H68        -5.8150   -2.2270   -1.4280 hc        1 MOL      0.021647
    157 H69        -7.5120   -0.6590   -2.4070 hc        1 MOL      0.034259
    158 H70        -8.7950   -1.6260   -1.7780 hc        1 MOL      0.034259
    159 N14        -4.5910   -1.4950    1.4420 n         1 MOL     -0.078680
    160 C53        -3.5230   -1.9430    2.4260 c3        1 MOL     -0.213469
    161 C54        -3.9180   -1.5350    3.8560 c         1 MOL      0.450489
    162 O24        -3.5400   -2.2630    4.7990 o         1 MOL     -0.564724
    163 C55        -2.1210   -1.3670    2.0410 c3        1 MOL     -0.111907
    164 C56        -1.5120   -2.0430    0.8050 c3        1 MOL     -0.163457
    165 C57        -0.2070   -1.4020    0.4420 c         1 MOL      0.746386
    166 O25         0.0570   -0.1760    0.6180 o         1 MOL     -0.670831
    167 O26         0.7310   -2.0750   -0.0520 o         1 MOL     -0.670831
    168 H71        -4.4590   -0.5900    1.0070 hn        1 MOL      0.059069
    169 H72        -3.5530   -3.0290    2.4640 h1        1 MOL      0.151284
    170 H73        -1.4550   -1.6140    2.8700 hc        1 MOL      0.105933
    171 H74        -2.1740   -0.2860    1.9420 hc        1 MOL      0.105933
    172 H75        -2.1940   -1.8770   -0.0240 hc        1 MOL      0.092132
    173 H76        -1.4660   -3.1290    0.9200 hc        1 MOL      0.092132
    174 N15        -4.7350   -0.5090    4.0470 n         1 MOL     -0.116959
    175 C58        -5.1140    0.0990    5.3080 c3        1 MOL     -0.188637
    176 H77        -6.0600    0.6260    5.1870 h1        1 MOL      0.077965
    177 H78        -5.2250   -0.6760    6.0670 h1        1 MOL      0.077965
    178 H79        -4.3430    0.8050    5.6180 h1        1 MOL      0.077965
    179 H80        -4.9930   -0.0960    3.1720 hn        1 MOL      0.175534
    180 Ca1         2.5770   -0.1070   -0.0330 Ca        1 MOL      1.747470
    181 O27         4.6780    0.5470    1.4260 oh        1 MOL     -0.874444
    182 H81         4.5960    1.0970    2.2070 ho        1 MOL      0.422149
    183 H82         5.5820    0.2230    1.4640 ho        1 MOL      0.422149
    184 O28         2.1790   -0.3240    2.5710 oh        1 MOL     -0.874444
    185 H83         1.2580   -0.4660    2.8000 ho        1 MOL      0.422149
    186 H84         2.6560   -0.4970    3.3860 ho        1 MOL      0.422149
    187 O29         1.0340    0.7220   -2.2390 oh        1 MOL     -0.874444
    188 H85         1.3810    1.5970   -2.4460 ho        1 MOL      0.422149
    189 H86         1.4310    0.1560   -2.8980 ho        1 MOL      0.422149
@<TRIPOS>BOND
     1    1    2 1   
     2    1    4 1   
     3    1    5 1   
     4    1    6 1   
     5    2    3 2   
     6    2    7 1   
     7    7    8 1   
     8    7   15 1   
     9    8    9 1   
    10    8   11 1   
    11    8   16 1   
    12    9   10 2   
    13    9   19 1   
    14   11   12 1   
    15   11   17 1   
    16   11   18 1   
    17   12   13 1   
    18   12   14 1   
    19   19   20 1   
    20   19   27 1   
    21   20   21 1   
    22   20   23 1   
    23   20   28 1   
    24   21   22 2   
    25   21   38 1   
    26   23   24 1   
    27   23   25 1   
    28   23   29 1   
    29   24   26 1   
    30   24   30 1   
    31   24   31 1   
    32   25   32 1   
    33   25   33 1   
    34   25   34 1   
    35   26   35 1   
    36   26   36 1   
    37   26   37 1   
    38   38   39 1   
    39   38   46 1   
    40   39   40 1   
    41   39   42 1   
    42   39   47 1   
    43   40   41 2   
    44   40   50 1   
    45   42   43 1   
    46   42   48 1   
    47   42   49 1   
    48   43   44 1   
    49   43   45 1   
    50   50   51 1   
    51   50   54 1   
    52   51   52 1   
    53   51   55 1   
    54   51   56 1   
    55   52   53 2   
    56   52   57 1   
    57   57   58 1   
    58   57   65 1   
    59   58   59 1   
    60   58   61 1   
    61   58   66 1   
    62   59   60 2   
    63   59   69 1   
    64   61   62 1   
    65   61   67 1   
    66   61   68 1   
    67   62   63 1   
    68   62   64 1   
    69   69   70 1   
    70   69   73 1   
    71   70   71 1   
    72   70   74 1   
    73   70   75 1   
    74   71   72 2   
    75   71   76 1   
    76   76   77 1   
    77   76   85 1   
    78   77   78 1   
    79   77   80 1   
    80   77   86 1   
    81   78   79 2   
    82   78   93 1   
    83   80   81 1   
    84   80   87 1   
    85   80   88 1   
    86   81   82 1   
    87   81   89 1   
    88   81   90 1   
    89   82   83 1   
    90   82   84 2   
    91   83   91 1   
    92   83   92 1   
    93   93   94 1   
    94   93  100 1   
    95   94   95 1   
    96   94   97 1   
    97   94  101 1   
    98   95   96 2   
    99   95  109 1   
   100   97   98 1   
   101   97   99 1   
   102   97  102 1   
   103   98  103 1   
   104   98  104 1   
   105   98  105 1   
   106   99  106 1   
   107   99  107 1   
   108   99  108 1   
   109  109  110 1   
   110  109  117 1   
   111  110  111 1   
   112  110  113 1   
   113  110  118 1   
   114  111  112 2   
   115  111  123 1   
   116  113  114 1   
   117  113  119 1   
   118  113  120 1   
   119  114  115 1   
   120  114  116 2   
   121  115  121 1   
   122  115  122 1   
   123  123  124 1   
   124  123  135 1   
   125  124  125 1   
   126  124  127 1   
   127  124  136 1   
   128  125  126 2   
   129  125  144 1   
   130  127  128 1   
   131  127  137 1   
   132  127  138 1   
   133  128  129 ar  
   134  128  130 ar  
   135  129  131 ar  
   136  129  139 1   
   137  130  132 ar  
   138  130  140 1   
   139  131  133 ar  
   140  131  141 1   
   141  132  133 ar  
   142  132  142 1   
   143  133  134 1   
   144  134  143 1   
   145  144  145 1   
   146  144  153 1   
   147  145  146 1   
   148  145  148 1   
   149  145  154 1   
   150  146  147 2   
   151  146  159 1   
   152  148  149 1   
   153  148  155 1   
   154  148  156 1   
   155  149  150 1   
   156  149  157 1   
   157  149  158 1   
   158  150  151 1   
   159  150  152 1   
   160  159  160 1   
   161  159  168 1   
   162  160  161 1   
   163  160  163 1   
   164  160  169 1   
   165  161  162 2   
   166  161  174 1   
   167  163  164 1   
   168  163  170 1   
   169  163  171 1   
   170  164  165 1   
   171  164  172 1   
   172  164  173 1   
   173  165  166 1   
   174  165  167 1   
   175  174  175 1   
   176  174  179 1   
   177  175  176 1   
   178  175  177 1   
   179  175  178 1   
   180  181  182 1   
   181  181  183 1   
   182  184  185 1   
   183  184  186 1   
   184  187  188 1   
   185  187  189 1   
@<TRIPOS>SUBSTRUCTURE
     1 MOL         1 TEMP              0 ****  ****    0 ROOT
