@<TRIPOS>MOLECULE
MOL
  189   185     1     0     0
SMALL
resp


@<TRIPOS>ATOM
      1 C1          0.5910    2.4960    5.8990 c3        1 MOL     -0.389831
      2 C2          0.0410    2.3400    4.4910 c         1 MOL      0.709143
      3 O1          0.5610    2.8220    3.4740 o         1 MOL     -0.614285
      4 H1         -0.1380    3.0230    6.5160 hc        1 MOL      0.112983
      5 H2          0.7840    1.5120    6.3260 hc        1 MOL      0.112983
      6 H3          1.5180    3.0680    5.8660 hc        1 MOL      0.112983
      7 N1         -1.1290    1.6930    4.2570 n         1 MOL     -0.678070
      8 C3         -1.6310    1.3920    2.9110 c3        1 MOL      0.521953
      9 C4         -2.2460    2.7090    2.2990 c         1 MOL      0.442179
     10 O2         -3.1350    3.3180    2.8600 o         1 MOL     -0.546836
     11 C5         -2.7180    0.2910    3.0100 c3        1 MOL     -0.608778
     12 C6         -3.6030    0.1780    1.7290 c         1 MOL      0.821679
     13 O3         -3.1660    0.6360    0.6360 o         1 MOL     -0.633131
     14 O4         -4.7970   -0.1370    1.8180 o         1 MOL     -0.633131
     15 H4         -1.3870    0.9910    4.9260 hn        1 MOL      0.322634
     16 H5         -0.8210    1.0240    2.2830 h1        1 MOL     -0.215218
     17 H6         -3.2850    0.6550    3.8640 hc        1 MOL      0.149966
     18 H7         -2.2760   -0.6480    3.3490 hc        1 MOL      0.149966
     19 N2         -1.7020    3.1330    1.1410 n         1 MOL     -0.095903
     20 C7         -1.9840    4.4760    0.6280 c3        1 MOL      0.041983
     21 C8         -3.1610    4.5720   -0.3230 c         1 MOL      0.441811
     22 O5         -3.5440    5.6850   -0.6420 o         1 MOL     -0.566771
     23 C9         -0.7580    5.2330    0.1140 c3        1 MOL     -0.014332
     24 C10         0.2340    5.7000    1.1410 c3        1 MOL      0.021511
     25 C11         1.5440    6.1430    0.4800 c3        1 MOL     -0.041464
     26 C12         2.4320    6.8430    1.5800 c3        1 MOL      0.152660
     27 N3          3.6610    7.4360    0.9510 n4        1 MOL     -0.419823
     28 H8         -1.0650    2.5880    0.5790 hn        1 MOL      0.254337
     29 H9         -2.3020    5.1500    1.4300 h1        1 MOL      0.037331
     30 H10        -0.9720    6.1850   -0.3550 hc        1 MOL      0.011695
     31 H11        -0.2330    4.4980   -0.4950 hc        1 MOL      0.011695
     32 H12         0.3820    4.8280    1.7670 hc        1 MOL      0.020077
     33 H13        -0.1990    6.5360    1.6760 hc        1 MOL      0.020077
     34 H14         1.4640    6.8430   -0.3430 hc        1 MOL      0.014291
     35 H15         2.1100    5.2520    0.1770 hc        1 MOL      0.014291
     36 H16         2.7860    6.0400    2.2270 hx        1 MOL      0.054457
     37 H17         1.8410    7.4980    2.2200 hx        1 MOL      0.054457
     38 H18         3.4970    8.0690    0.1890 hn        1 MOL      0.331692
     39 H19         4.2120    8.0260    1.5640 hn        1 MOL      0.331692
     40 H20         4.2790    6.6880    0.6500 hn        1 MOL      0.331692
     41 N4         -3.7510    3.4440   -0.6800 n         1 MOL     -0.005173
     42 C13        -4.8960    3.4130   -1.6030 c3        1 MOL     -0.070356
     43 C14        -6.2500    2.9310   -0.9650 c         1 MOL      0.375136
     44 O6         -7.3260    3.1840   -1.5140 o         1 MOL     -0.482557
     45 C15        -4.5810    2.5920   -2.8240 c3        1 MOL      0.073285
     46 C16        -3.1280    2.6950   -3.1950 c         1 MOL      0.512565
     47 O7         -2.2190    1.9400   -2.7260 o         1 MOL     -0.663331
     48 O8         -2.8400    3.6940   -3.9800 o         1 MOL     -0.663331
     49 H21        -3.4570    2.5860   -0.2410 hn        1 MOL     -0.180801
     50 H22        -5.0590    4.4270   -1.9560 h1        1 MOL      0.100671
     51 H23        -5.3450    2.7380   -3.5790 hc        1 MOL     -0.001245
     52 H24        -4.7470    1.5460   -2.5510 hc        1 MOL     -0.001245
     53 N5         -6.2000    2.2460    0.1780 n         1 MOL     -0.286010
     54 C17        -7.3980    1.6020    0.6670 c3        1 MOL     -0.103747
     55 C18        -7.6890    0.4380   -0.2560 c         1 MOL      0.393756
     56 O9         -8.8940    0.1450   -0.4890 o         1 MOL     -0.565461
     57 H25        -5.3030    1.9980    0.5730 hn        1 MOL      0.253151
     58 H26        -8.1640    2.3740    0.7610 h1        1 MOL      0.098558
     59 H27        -7.1660    1.1660    1.6360 h1        1 MOL      0.098558
     60 N6         -6.7200   -0.2440   -0.8130 n         1 MOL     -0.124501
     61 C19        -6.8930   -1.5260   -1.4240 c3        1 MOL     -0.023365
     62 C20        -6.6390   -2.6970   -0.4550 c         1 MOL      0.509363
     63 O10        -6.6450   -3.8730   -0.8440 o         1 MOL     -0.544325
     64 C21        -5.9950   -1.4900   -2.6720 c3        1 MOL     -0.315222
     65 C22        -4.4530   -1.4160   -2.3650 c         1 MOL      0.861585
     66 O11        -4.0400   -1.6720   -1.2170 o         1 MOL     -0.832477
     67 O12        -3.5570   -1.0550   -3.1680 o         1 MOL     -0.832477
     68 H28        -5.7810   -0.0760   -0.4780 hn        1 MOL      0.288231
     69 H29        -7.9260   -1.6520   -1.7370 h1        1 MOL      0.111142
     70 H30        -6.2920   -0.6260   -3.2470 hc        1 MOL      0.094559
     71 H31        -6.2740   -2.3860   -3.2250 hc        1 MOL      0.094559
     72 N7         -6.4260   -2.3840    0.8170 n         1 MOL     -0.404171
     73 C23        -6.2270   -3.3170    1.8930 c3        1 MOL      0.064041
     74 C24        -4.9750   -4.1800    1.8400 c         1 MOL      0.436788
     75 O13        -4.8760   -5.2530    2.3700 o         1 MOL     -0.542454
     76 H32        -6.1630   -1.4530    1.0960 hn        1 MOL      0.261280
     77 H33        -7.0700   -3.9750    2.1010 h1        1 MOL      0.048036
     78 H34        -6.1010   -2.7170    2.7930 h1        1 MOL      0.048036
     79 N8         -3.9490   -3.6760    1.1180 n         1 MOL     -0.137431
     80 C25        -2.6530   -4.3370    0.8620 c3        1 MOL     -0.018992
     81 C26        -1.4060   -3.3800    0.9730 c         1 MOL      0.414022
     82 O14        -1.4730   -2.2270    0.5470 o         1 MOL     -0.494409
     83 C27        -2.7610   -5.1280   -0.4850 c3        1 MOL      0.430446
     84 C28        -3.4980   -6.4550   -0.4460 c3        1 MOL     -0.445378
     85 O15        -3.3020   -4.3360   -1.5340 oh        1 MOL     -0.576685
     86 H35        -4.0580   -2.7400    0.7820 hn        1 MOL      0.062707
     87 H36        -2.4810   -5.0520    1.6710 h1        1 MOL      0.051081
     88 H37        -1.7330   -5.4520   -0.6440 h1        1 MOL     -0.036152
     89 H38        -4.0000   -3.8440   -1.0940 ho        1 MOL      0.386093
     90 H39        -3.2030   -6.9430    0.4820 hc        1 MOL      0.115235
     91 H40        -4.5660   -6.2850   -0.2740 hc        1 MOL      0.115235
     92 H41        -3.4510   -7.0910   -1.3290 hc        1 MOL      0.115235
     93 N9         -0.2110   -3.9700    1.3160 n         1 MOL     -0.454118
     94 C29         1.0260   -3.2700    1.5100 c3        1 MOL      0.093057
     95 C30         1.9030   -3.6750    0.2680 c         1 MOL      0.343457
     96 O16         2.3250   -4.8710    0.1990 o         1 MOL     -0.523512
     97 C31         1.5270   -3.6380    2.9240 c3        1 MOL     -0.006977
     98 C32         0.7730   -2.9400    4.0820 c3        1 MOL      0.023059
     99 C33         3.0240   -3.4240    2.9750 c3        1 MOL     -0.033614
    100 C34         0.8430   -1.3820    4.0750 c3        1 MOL     -0.065811
    101 H42        -0.0930   -4.9600    1.4730 hn        1 MOL      0.285790
    102 H43         0.7790   -2.2140    1.4330 h1        1 MOL      0.210077
    103 H44         1.3090   -4.6760    3.1900 hc        1 MOL      0.018495
    104 H45         1.1750   -3.3740    4.9950 hc        1 MOL      0.006963
    105 H46        -0.2690   -3.2610    4.0950 hc        1 MOL      0.006963
    106 H47         3.4670   -3.6710    3.9370 hc        1 MOL     -0.003776
    107 H48         3.5740   -4.0310    2.2510 hc        1 MOL     -0.003776
    108 H49         3.1940   -2.3760    2.7650 hc        1 MOL     -0.003776
    109 H50         1.8680   -1.0900    4.3130 hc        1 MOL      0.013318
    110 H51         0.5420   -0.9280    3.1370 hc        1 MOL      0.013318
    111 H52         0.1180   -1.0230    4.8110 hc        1 MOL      0.013318
    112 N10         2.3130   -2.6900   -0.5260 n         1 MOL     -0.158365
    113 C35         3.4730   -2.7040   -1.4270 c3        1 MOL      0.194483
    114 C36         4.7810   -2.3700   -0.7540 c         1 MOL      0.241282
    115 O17         4.8280   -1.9570    0.3700 o         1 MOL     -0.185890
    116 C37         3.2770   -1.8210   -2.6700 c3        1 MOL      0.002761
    117 C38         2.4640   -2.5010   -3.7060 c3        1 MOL     -0.043819
    118 O18         2.5760   -0.6650   -2.3310 oh        1 MOL     -0.310430
    119 H53         1.9180   -1.7720   -0.3790 hn        1 MOL      0.021455
    120 H54         3.5810   -3.7080   -1.8500 h1        1 MOL      0.018183
    121 H55         4.2950   -1.6650   -3.0290 h1        1 MOL     -0.020992
    122 H56         1.8480   -0.6360   -2.9480 ho        1 MOL      0.358486
    123 H57         2.8660   -3.3480   -4.2590 hc        1 MOL      0.025992
    124 H58         1.5650   -2.8490   -3.1970 hc        1 MOL      0.025992
    125 H59         2.2070   -1.8060   -4.5130 hc        1 MOL      0.025992
    126 N11         5.8690   -2.6430   -1.4330 n         1 MOL     -0.305002
    127 C39         7.2060   -2.3000   -1.0420 c3        1 MOL     -0.187110
    128 C40         7.4700   -0.9480   -0.5670 c         1 MOL      0.361234
    129 O19         8.0820   -0.7050    0.4380 o         1 MOL     -0.461374
    130 C41         8.2430   -2.6280   -2.1120 c3        1 MOL      0.322238
    131 C42         8.7370   -4.0750   -2.0810 c3        1 MOL     -0.269489
    132 O20         7.7620   -2.2680   -3.3830 oh        1 MOL     -0.583413
    133 H60         5.7770   -3.1130   -2.3200 hn        1 MOL      0.318148
    134 H61         7.3790   -2.9770   -0.2100 h1        1 MOL      0.142979
    135 H62         9.1390   -2.0590   -1.8770 h1        1 MOL      0.047413
    136 H63         8.4650   -1.6660   -3.6420 ho        1 MOL      0.381312
    137 H64         7.9360   -4.7700   -2.3330 hc        1 MOL      0.082313
    138 H65         9.5670   -4.2240   -2.7630 hc        1 MOL      0.082313
    139 H66         9.0390   -4.3630   -1.0810 hc        1 MOL      0.082313
    140 N12         6.8460    0.0350   -1.2500 n         1 MOL     -0.205658
    141 C43         6.9190    1.4830   -0.8220 c3        1 MOL     -0.191080
    142 C44         6.1580    1.7290    0.5380 c         1 MOL      0.477544
    143 O21         6.4910    2.7350    1.1250 o         1 MOL     -0.550803
    144 C45         6.3610    2.3630   -1.9150 c3        1 MOL      0.014839
    145 C46         5.0040    1.9810   -2.3990 c3        1 MOL      0.115036
    146 C47         4.5180    2.6510   -3.7330 c3        1 MOL     -0.244346
    147 C48         3.0880    2.4230   -3.9410 c3        1 MOL      0.331330
    148 N13         2.5560    3.1910   -5.1910 n4        1 MOL     -0.489235
    149 H67         6.5400   -0.1400   -2.2020 hn        1 MOL      0.162494
    150 H68         7.9870    1.6580   -0.7260 h1        1 MOL      0.147143
    151 H69         7.0470    2.5240   -2.7470 hc        1 MOL      0.009247
    152 H70         6.2650    3.3360   -1.4400 hc        1 MOL      0.009247
    153 H71         4.3080    2.1410   -1.5720 hc        1 MOL      0.011737
    154 H72         5.0590    0.9250   -2.6670 hc        1 MOL      0.011737
    155 H73         5.1190    2.2380   -4.5450 hc        1 MOL      0.058524
    156 H74         4.6010    3.7360   -3.7210 hc        1 MOL      0.058524
    157 H75         2.4600    2.7640   -3.1140 hx        1 MOL     -0.018764
    158 H76         2.8060    1.3690   -3.9550 hx        1 MOL     -0.018764
    159 H77         2.7330    4.1830   -5.1110 hn        1 MOL      0.338421
    160 H78         3.0320    2.7790   -5.9770 hn        1 MOL      0.338421
    161 H79         1.5650    3.1810   -5.3280 hn        1 MOL      0.338421
    162 N14         5.2240    0.9070    0.8740 n         1 MOL     -0.021676
    163 C49         4.3370    1.1720    2.0210 c3        1 MOL     -0.172443
    164 C50         4.8650    0.3540    3.2670 c         1 MOL      0.422136
    165 O22         4.9330    0.9000    4.3750 o         1 MOL     -0.530959
    166 C51         2.8630    0.8050    1.6180 c3        1 MOL      0.091070
    167 C52         2.2280    1.3060    0.3270 c3        1 MOL      0.009080
    168 C53         0.8330    0.8130   -0.0670 c         1 MOL      0.594362
    169 O23         0.4880   -0.3820    0.0910 o         1 MOL     -0.697540
    170 O24         0.0650    1.5270   -0.6970 o         1 MOL     -0.697540
    171 H80         5.2830    0.0210    0.4020 hn        1 MOL      0.095333
    172 H81         4.2740    2.2190    2.3190 h1        1 MOL      0.111462
    173 H82         2.2160    0.9700    2.4800 hc        1 MOL      0.031612
    174 H83         2.6730   -0.2660    1.5040 hc        1 MOL      0.031612
    175 H84         2.9060    0.9250   -0.4380 hc        1 MOL     -0.048051
    176 H85         2.1450    2.3900    0.4600 hc        1 MOL     -0.048051
    177 N15         5.4760   -0.8130    3.0180 n         1 MOL     -0.026510
    178 C54         6.5130   -1.3800    3.8930 c3        1 MOL     -0.332405
    179 H86         7.4570   -1.4310    3.3520 h1        1 MOL      0.126561
    180 H87         6.6330   -0.7470    4.7730 h1        1 MOL      0.126561
    181 H88         6.2180   -2.3830    4.2040 h1        1 MOL      0.126561
    182 H89         5.3280   -1.1720    2.0820 hn        1 MOL      0.040112
    183 Ca1        -1.6860   -0.2750   -1.4580 Ca        1 MOL      1.760491
    184 O25         0.1190    0.3120   -3.6120 oh        1 MOL     -0.801931
    185 H90         0.0340   -0.1860   -4.4340 ho        1 MOL      0.389977
    186 H91        -0.0820    1.2110   -3.8440 ho        1 MOL      0.389977
    187 O26        -1.0340   -2.9950   -2.4690 oh        1 MOL     -0.801931
    188 H92        -1.6580   -3.5090   -1.9640 ho        1 MOL      0.389977
    189 H93        -0.7590   -3.5730   -3.1790 ho        1 MOL      0.389977
@<TRIPOS>BOND
     1    1    2 1   
     2    1    4 1   
     3    1    5 1   
     4    1    6 1   
     5    2    3 2   
     6    2    7 1   
     7    7    8 1   
     8    7   15 1   
     9    8    9 1   
    10    8   11 1   
    11    8   16 1   
    12    9   10 2   
    13    9   19 1   
    14   11   12 1   
    15   11   17 1   
    16   11   18 1   
    17   12   13 1   
    18   12   14 1   
    19   19   20 1   
    20   19   28 1   
    21   20   21 1   
    22   20   23 1   
    23   20   29 1   
    24   21   22 2   
    25   21   41 1   
    26   23   24 1   
    27   23   30 1   
    28   23   31 1   
    29   24   25 1   
    30   24   32 1   
    31   24   33 1   
    32   25   26 1   
    33   25   34 1   
    34   25   35 1   
    35   26   27 1   
    36   26   36 1   
    37   26   37 1   
    38   27   38 1   
    39   27   39 1   
    40   27   40 1   
    41   41   42 1   
    42   41   49 1   
    43   42   43 1   
    44   42   45 1   
    45   42   50 1   
    46   43   44 2   
    47   43   53 1   
    48   45   46 1   
    49   45   51 1   
    50   45   52 1   
    51   46   47 1   
    52   46   48 1   
    53   53   54 1   
    54   53   57 1   
    55   54   55 1   
    56   54   58 1   
    57   54   59 1   
    58   55   56 2   
    59   55   60 1   
    60   60   61 1   
    61   60   68 1   
    62   61   62 1   
    63   61   64 1   
    64   61   69 1   
    65   62   63 2   
    66   62   72 1   
    67   64   65 1   
    68   64   70 1   
    69   64   71 1   
    70   65   66 1   
    71   65   67 1   
    72   72   73 1   
    73   72   76 1   
    74   73   74 1   
    75   73   77 1   
    76   73   78 1   
    77   74   75 2   
    78   74   79 1   
    79   79   80 1   
    80   79   86 1   
    81   80   81 1   
    82   80   83 1   
    83   80   87 1   
    84   81   82 2   
    85   81   93 1   
    86   83   84 1   
    87   83   85 1   
    88   83   88 1   
    89   84   90 1   
    90   84   91 1   
    91   84   92 1   
    92   85   89 1   
    93   93   94 1   
    94   93  101 1   
    95   94   95 1   
    96   94   97 1   
    97   94  102 1   
    98   95   96 2   
    99   95  112 1   
   100   97   98 1   
   101   97   99 1   
   102   97  103 1   
   103   98  100 1   
   104   98  104 1   
   105   98  105 1   
   106   99  106 1   
   107   99  107 1   
   108   99  108 1   
   109  100  109 1   
   110  100  110 1   
   111  100  111 1   
   112  112  113 1   
   113  112  119 1   
   114  113  114 1   
   115  113  116 1   
   116  113  120 1   
   117  114  115 2   
   118  114  126 1   
   119  116  117 1   
   120  116  118 1   
   121  116  121 1   
   122  117  123 1   
   123  117  124 1   
   124  117  125 1   
   125  118  122 1   
   126  126  127 1   
   127  126  133 1   
   128  127  128 1   
   129  127  130 1   
   130  127  134 1   
   131  128  129 2   
   132  128  140 1   
   133  130  131 1   
   134  130  132 1   
   135  130  135 1   
   136  131  137 1   
   137  131  138 1   
   138  131  139 1   
   139  132  136 1   
   140  140  141 1   
   141  140  149 1   
   142  141  142 1   
   143  141  144 1   
   144  141  150 1   
   145  142  143 2   
   146  142  162 1   
   147  144  145 1   
   148  144  151 1   
   149  144  152 1   
   150  145  146 1   
   151  145  153 1   
   152  145  154 1   
   153  146  147 1   
   154  146  155 1   
   155  146  156 1   
   156  147  148 1   
   157  147  157 1   
   158  147  158 1   
   159  148  159 1   
   160  148  160 1   
   161  148  161 1   
   162  162  163 1   
   163  162  171 1   
   164  163  164 1   
   165  163  166 1   
   166  163  172 1   
   167  164  165 2   
   168  164  177 1   
   169  166  167 1   
   170  166  173 1   
   171  166  174 1   
   172  167  168 1   
   173  167  175 1   
   174  167  176 1   
   175  168  169 1   
   176  168  170 1   
   177  177  178 1   
   178  177  182 1   
   179  178  179 1   
   180  178  180 1   
   181  178  181 1   
   182  184  185 1   
   183  184  186 1   
   184  187  188 1   
   185  187  189 1   
@<TRIPOS>SUBSTRUCTURE
     1 MOL         1 TEMP              0 ****  ****    0 ROOT
