@<TRIPOS>MOLECULE
MOL
  186   183     1     0     0
SMALL
resp


@<TRIPOS>ATOM
      1 C1          0.2780   -1.3750    6.2360 c3        1 MOL     -0.294722
      2 C2          0.6760   -1.4820    4.7670 c         1 MOL      0.759119
      3 O1         -0.1570   -1.9170    3.9370 o         1 MOL     -0.581536
      4 H1         -0.8000   -1.5060    6.3300 hc        1 MOL      0.066338
      5 H2          0.7890   -2.1480    6.8090 hc        1 MOL      0.066338
      6 H3          0.5590   -0.3940    6.6180 hc        1 MOL      0.066338
      7 N1          1.9330   -1.3270    4.4350 n         1 MOL     -0.716133
      8 C3          2.4820   -1.5500    3.1090 c3        1 MOL      0.465178
      9 C4          2.5620   -3.0810    2.8630 c         1 MOL      0.465260
     10 O2          2.9690   -3.8910    3.6660 o         1 MOL     -0.607566
     11 C5          3.8740   -0.8070    3.0010 c3        1 MOL     -0.311274
     12 C6          4.4860   -0.8040    1.6260 c         1 MOL      0.840577
     13 O3          5.6930   -0.6250    1.5520 o         1 MOL     -0.684610
     14 O4          3.7520   -1.1360    0.6400 o         1 MOL     -0.684610
     15 H4          2.5350   -1.0320    5.1870 hn        1 MOL      0.316144
     16 H5          1.9020   -1.0870    2.3190 h1        1 MOL     -0.039166
     17 H6          4.5660   -1.3640    3.6460 hc        1 MOL      0.040113
     18 H7          3.7910    0.2270    3.3440 hc        1 MOL      0.040113
     19 N2          2.2990   -3.5050    1.6450 n         1 MOL     -0.114324
     20 C7          2.3020   -4.9340    1.2120 c3        1 MOL      0.021129
     21 C8          3.4740   -5.1830    0.2250 c         1 MOL      0.478743
     22 O5          4.2690   -6.1460    0.1930 o         1 MOL     -0.584843
     23 C9          0.8570   -5.3360    0.7520 c3        1 MOL      0.319288
     24 C10        -0.0770   -5.3790    1.9090 c3        1 MOL      0.084640
     25 C11         0.9190   -6.7010   -0.0360 c3        1 MOL     -0.455979
     26 C12        -1.5020   -5.5240    1.5160 c3        1 MOL      0.065643
     27 H8          1.9450   -2.8650    0.9580 hn        1 MOL     -0.025938
     28 H9          2.5460   -5.6220    2.0200 h1        1 MOL      0.037367
     29 H10         0.4790   -4.5950    0.0480 hc        1 MOL     -0.026859
     30 H11         0.0500   -4.4150    2.4030 hc        1 MOL     -0.050198
     31 H12         0.2000   -6.1870    2.5880 hc        1 MOL     -0.050198
     32 H13         1.5290   -6.4690   -0.9150 hc        1 MOL      0.093804
     33 H14         1.4770   -7.4360    0.5430 hc        1 MOL      0.093804
     34 H15        -0.0390   -6.9630   -0.4720 hc        1 MOL      0.093804
     35 H16        -2.1430   -5.1350    2.3100 hc        1 MOL     -0.029018
     36 H17        -1.8580   -5.0030    0.6270 hc        1 MOL     -0.029018
     37 H18        -1.7710   -6.5780    1.4300 hc        1 MOL     -0.029018
     38 N3          3.7080   -4.2470   -0.7280 n         1 MOL     -0.465354
     39 C13         4.6460   -4.4730   -1.9120 c3        1 MOL      0.073707
     40 C14         6.0760   -3.8930   -1.7180 c         1 MOL      0.422732
     41 O6          7.0010   -4.1560   -2.4670 o         1 MOL     -0.562576
     42 C15         4.0880   -3.8520   -3.1870 c3        1 MOL     -0.248749
     43 C16         3.4600   -2.4600   -3.1120 c         1 MOL      0.732455
     44 O7          3.6200   -1.7070   -2.0940 o         1 MOL     -0.698398
     45 O8          3.0030   -1.9230   -4.1630 o         1 MOL     -0.698398
     46 H19         3.2940   -3.3260   -0.6420 hn        1 MOL      0.299997
     47 H20         4.8040   -5.5280   -2.1080 h1        1 MOL      0.101213
     48 H21         3.4650   -4.6570   -3.5850 hc        1 MOL      0.075357
     49 H22         4.8310   -3.7840   -3.9920 hc        1 MOL      0.075357
     50 N4          6.1650   -3.0930   -0.6460 n         1 MOL      0.085367
     51 C17         7.3720   -2.4860   -0.2700 c3        1 MOL     -0.547612
     52 C18         7.7190   -1.2680   -1.1610 c         1 MOL      0.797609
     53 O9          8.5120   -1.2150   -2.0720 o         1 MOL     -0.609827
     54 H23         5.2750   -2.8310   -0.2730 hn        1 MOL      0.099839
     55 H24         8.1540   -3.2280   -0.4060 h1        1 MOL      0.147319
     56 H25         7.2770   -2.2100    0.7770 h1        1 MOL      0.147319
     57 N5          7.1320   -0.1170   -0.8610 n         1 MOL     -0.441364
     58 C19         7.4820    1.2180   -1.3810 c3        1 MOL      0.017848
     59 C20         7.5310    2.2830   -0.3470 c         1 MOL      0.559634
     60 O10         8.1850    3.3100   -0.5470 o         1 MOL     -0.582957
     61 C21         6.5590    1.5930   -2.5310 c3        1 MOL     -0.017548
     62 C22         5.0800    1.6320   -2.1810 c         1 MOL      0.756984
     63 O11         4.2130    1.7420   -3.0990 o         1 MOL     -0.755527
     64 O12         4.7070    1.5380   -1.0190 o         1 MOL     -0.755527
     65 H26         6.3870   -0.2440   -0.1930 hn        1 MOL      0.149010
     66 H27         8.5100    1.1450   -1.7420 h1        1 MOL      0.063392
     67 H28         6.7680    1.0240   -3.4360 hc        1 MOL      0.010898
     68 H29         6.7850    2.6030   -2.8760 hc        1 MOL      0.010898
     69 N6          6.9540    2.0650    0.8460 n         1 MOL     -0.407789
     70 C23         6.8090    3.0990    1.8650 c3        1 MOL      0.065363
     71 C24         5.5360    3.9980    1.7420 c         1 MOL      0.384494
     72 O13         5.5820    5.1630    2.0930 o         1 MOL     -0.587424
     73 H30         6.4570    1.2250    1.1060 hn        1 MOL      0.274686
     74 H31         7.6960    3.7290    1.9320 h1        1 MOL      0.046570
     75 H32         6.8050    2.6060    2.8360 h1        1 MOL      0.046570
     76 N7          4.4860    3.5900    1.0710 n         1 MOL     -0.152080
     77 C25         3.1910    4.3250    0.9930 c3        1 MOL      0.025609
     78 C26         2.0840    3.3650    1.0570 c         1 MOL      0.529313
     79 O14         2.1270    2.2060    0.7130 o         1 MOL     -0.634850
     80 C27         3.0860    5.1950   -0.2810 c3        1 MOL     -0.191200
     81 C28         4.2840    6.2100   -0.3530 c3        1 MOL     -0.253089
     82 C29         4.0770    7.3320   -1.3610 c         1 MOL      0.631573
     83 N8          4.7880    7.2640   -2.4910 n         1 MOL     -0.780787
     84 O15         3.3190    8.2760   -1.2690 o         1 MOL     -0.577045
     85 H33         4.6180    2.6730    0.6770 hn        1 MOL      0.139034
     86 H34         3.1680    4.9520    1.8820 h1        1 MOL      0.064601
     87 H35         2.1300    5.6960   -0.2070 hc        1 MOL      0.120343
     88 H36         3.2090    4.5200   -1.1280 hc        1 MOL      0.120343
     89 H37         5.2200    5.6710   -0.5270 hc        1 MOL      0.130252
     90 H38         4.3510    6.7020    0.6150 hc        1 MOL      0.130252
     91 H39         5.4960    6.5870   -2.7290 hn        1 MOL      0.348251
     92 H40         4.5390    7.9840   -3.1570 hn        1 MOL      0.348251
     93 N9          0.8850    3.8160    1.4540 n         1 MOL     -0.409465
     94 C30        -0.3710    3.0800    1.5940 c3        1 MOL      0.052193
     95 C31        -1.5060    3.4380    0.6450 c         1 MOL      0.409687
     96 O16        -2.0050    4.5930    0.7310 o         1 MOL     -0.578481
     97 C32        -0.8600    3.0000    3.0170 c3        1 MOL      0.000712
     98 C33        -2.1960    2.3730    3.3880 c3        1 MOL     -0.184337
     99 C34         0.0270    2.0730    3.8980 c3        1 MOL     -0.184337
    100 H41         0.8920    4.7950    1.6880 hn        1 MOL      0.256502
    101 H42        -0.1100    2.0750    1.2410 h1        1 MOL      0.227900
    102 H43        -0.6800    3.9530    3.5290 hc        1 MOL      0.046130
    103 H44        -2.3320    1.3320    3.0840 hc        1 MOL      0.038024
    104 H45        -2.5160    2.6300    4.4040 hc        1 MOL      0.038024
    105 H46        -2.9900    2.8430    2.8030 hc        1 MOL      0.038024
    106 H47        -0.0030    1.0030    3.6980 hc        1 MOL      0.038024
    107 H48         1.0620    2.3760    3.7220 hc        1 MOL      0.038024
    108 H49        -0.1690    2.3380    4.9350 hc        1 MOL      0.038024
    109 N10        -1.9880    2.6170   -0.2700 n         1 MOL     -0.233058
    110 C35        -3.1510    2.8270   -1.1760 c3        1 MOL      0.201734
    111 C36        -4.4480    2.3070   -0.6100 c         1 MOL      0.321892
    112 O17        -4.3400    1.6800    0.4430 o         1 MOL     -0.278361
    113 C37        -2.8600    2.3620   -2.6020 c3        1 MOL     -0.537663
    114 C38        -3.0490    0.8810   -2.7240 c         1 MOL      0.756946
    115 N11        -2.1310    0.0360   -2.4290 n         1 MOL     -0.889758
    116 O18        -4.1410    0.4330   -3.0490 o         1 MOL     -0.629606
    117 H50        -1.5450    1.7130   -0.2340 hn        1 MOL      0.146619
    118 H51        -3.3120    3.9060   -1.1450 h1        1 MOL      0.056560
    119 H52        -1.8740    2.7100   -2.9430 hc        1 MOL      0.155742
    120 H53        -3.5800    2.8600   -3.2380 hc        1 MOL      0.155742
    121 H54        -1.3080    0.4050   -1.9840 hn        1 MOL      0.454003
    122 H55        -2.3560   -0.9310   -2.6490 hn        1 MOL      0.454003
    123 N12        -5.6410    2.4960   -1.2410 n         1 MOL     -0.535871
    124 C39        -6.8990    1.9000   -0.6290 c3        1 MOL      0.323316
    125 C40        -6.9820    0.4540   -0.3120 c         1 MOL      0.501586
    126 O19        -7.3020    0.0900    0.8490 o         1 MOL     -0.552831
    127 C41        -7.9860    2.2750   -1.5780 c3        1 MOL     -0.198319
    128 C42        -9.4220    2.1410   -1.1030 ca        1 MOL     -0.021743
    129 C43       -10.1840    3.1770   -0.5230 ca        1 MOL     -0.076092
    130 C44       -10.0050    0.9290   -1.3910 ca        1 MOL     -0.076092
    131 C45       -11.5300    2.9260   -0.1620 ca        1 MOL     -0.328869
    132 C46       -11.3360    0.6440   -1.0650 ca        1 MOL     -0.328869
    133 C47       -12.1060    1.6510   -0.4210 ca        1 MOL      0.385229
    134 O20       -13.3830    1.3730    0.0080 oh        1 MOL     -0.532450
    135 H56        -5.5980    2.8580   -2.1800 hn        1 MOL      0.290580
    136 H57        -7.0590    2.4340    0.3140 h1        1 MOL      0.020054
    137 H58        -7.9110    1.6890   -2.4860 hc        1 MOL      0.062229
    138 H59        -7.7740    3.3260   -1.7860 hc        1 MOL      0.062229
    139 H60        -9.6920    4.1150   -0.3040 ha        1 MOL      0.116700
    140 H61        -9.4420    0.1750   -1.9280 ha        1 MOL      0.116700
    141 H62       -12.1090    3.6730    0.3570 ha        1 MOL      0.162046
    142 H63       -11.7980   -0.3280   -1.1250 ha        1 MOL      0.162046
    143 H64       -13.6270    0.4920   -0.2860 ho        1 MOL      0.377039
    144 N13        -6.6070   -0.4680   -1.2120 n         1 MOL     -0.295013
    145 C48        -6.3630   -1.9050   -0.9890 c3        1 MOL     -0.054161
    146 C49        -5.6070   -2.1730    0.3390 c         1 MOL      0.353361
    147 O21        -6.1010   -2.9550    1.1850 o         1 MOL     -0.502610
    148 C50        -5.6060   -2.3660   -2.2780 c3        1 MOL     -0.012723
    149 C51        -5.6910   -3.8680   -2.3260 c3        1 MOL     -0.315966
    150 C52        -5.0410   -4.3270   -3.6780 c         1 MOL      0.688897
    151 O22        -3.7710   -4.3810   -3.8130 o         1 MOL     -0.730083
    152 O23        -5.9070   -4.5520   -4.5820 o         1 MOL     -0.730083
    153 H65        -6.4880   -0.0220   -2.1150 hn        1 MOL      0.205362
    154 H66        -7.2840   -2.4910   -0.9670 h1        1 MOL      0.092861
    155 H67        -4.5470   -2.1030   -2.2630 hc        1 MOL      0.066453
    156 H68        -6.0300   -1.8220   -3.1170 hc        1 MOL      0.066453
    157 H69        -6.7050   -4.2780   -2.3080 hc        1 MOL      0.061111
    158 H70        -5.2110   -4.2980   -1.4440 hc        1 MOL      0.061111
    159 N14        -4.4210   -1.6000    0.4980 n         1 MOL     -0.136968
    160 C53        -3.6940   -1.6650    1.7220 c3        1 MOL     -0.139886
    161 C54        -4.3230   -1.1500    2.9790 c         1 MOL      0.459382
    162 O24        -4.1990   -1.7120    4.0030 o         1 MOL     -0.560957
    163 C55        -2.3140   -0.9720    1.4700 c3        1 MOL      0.206877
    164 C56        -1.4970   -1.8440    0.5080 c3        1 MOL     -0.035641
    165 C57        -0.1860   -1.1390    0.1530 c         1 MOL      0.602978
    166 O25         0.8460   -1.8130    0.0360 o         1 MOL     -0.678934
    167 O26        -0.1620    0.0520   -0.0970 o         1 MOL     -0.678934
    168 H71        -4.2190   -0.9110   -0.2130 hn        1 MOL      0.182839
    169 H72        -3.3270   -2.6610    1.9590 h1        1 MOL      0.108443
    170 H73        -1.8130   -0.9250    2.4380 hc        1 MOL     -0.027268
    171 H74        -2.3490    0.0200    1.0210 hc        1 MOL     -0.027268
    172 H75        -2.1240   -2.0450   -0.3620 hc        1 MOL      0.009811
    173 H76        -1.3340   -2.8010    1.0090 hc        1 MOL      0.009811
    174 N15        -5.0160   -0.0250    2.8810 n         1 MOL      0.113740
    175 C58        -5.7380    0.6780    3.9490 c3        1 MOL     -0.322049
    176 H77        -6.7910    0.3980    3.9200 h1        1 MOL      0.094295
    177 H78        -5.3160    0.4030    4.9150 h1        1 MOL      0.094295
    178 H79        -5.6450    1.7550    3.8040 h1        1 MOL      0.094295
    179 H80        -5.0920    0.4660    2.0030 hn        1 MOL     -0.017836
    180 Ca1         2.4900    0.2880   -1.0270 Ca        1 MOL      1.757936
    181 O27         1.2700    2.5460   -2.1450 oh        1 MOL     -0.901579
    182 H81         1.8240    3.0340   -2.7410 ho        1 MOL      0.412025
    183 H82         0.5860    2.1800   -2.7050 ho        1 MOL      0.412025
    184 O28         1.3050   -0.0280   -3.3850 oh        1 MOL     -0.901579
    185 H83         1.9450   -0.6780   -3.6910 ho        1 MOL      0.412025
    186 H84         0.9370    0.3360   -4.1880 ho        1 MOL      0.412025
@<TRIPOS>BOND
     1    1    2 1   
     2    1    4 1   
     3    1    5 1   
     4    1    6 1   
     5    2    3 2   
     6    2    7 1   
     7    7    8 1   
     8    7   15 1   
     9    8    9 1   
    10    8   11 1   
    11    8   16 1   
    12    9   10 2   
    13    9   19 1   
    14   11   12 1   
    15   11   17 1   
    16   11   18 1   
    17   12   13 1   
    18   12   14 1   
    19   19   20 1   
    20   19   27 1   
    21   20   21 1   
    22   20   23 1   
    23   20   28 1   
    24   21   22 2   
    25   21   38 1   
    26   23   24 1   
    27   23   25 1   
    28   23   29 1   
    29   24   26 1   
    30   24   30 1   
    31   24   31 1   
    32   25   32 1   
    33   25   33 1   
    34   25   34 1   
    35   26   35 1   
    36   26   36 1   
    37   26   37 1   
    38   38   39 1   
    39   38   46 1   
    40   39   40 1   
    41   39   42 1   
    42   39   47 1   
    43   40   41 2   
    44   40   50 1   
    45   42   43 1   
    46   42   48 1   
    47   42   49 1   
    48   43   44 1   
    49   43   45 1   
    50   50   51 1   
    51   50   54 1   
    52   51   52 1   
    53   51   55 1   
    54   51   56 1   
    55   52   53 2   
    56   52   57 1   
    57   57   58 1   
    58   57   65 1   
    59   58   59 1   
    60   58   61 1   
    61   58   66 1   
    62   59   60 2   
    63   59   69 1   
    64   61   62 1   
    65   61   67 1   
    66   61   68 1   
    67   62   63 1   
    68   62   64 1   
    69   69   70 1   
    70   69   73 1   
    71   70   71 1   
    72   70   74 1   
    73   70   75 1   
    74   71   72 2   
    75   71   76 1   
    76   76   77 1   
    77   76   85 1   
    78   77   78 1   
    79   77   80 1   
    80   77   86 1   
    81   78   79 2   
    82   78   93 1   
    83   80   81 1   
    84   80   87 1   
    85   80   88 1   
    86   81   82 1   
    87   81   89 1   
    88   81   90 1   
    89   82   83 1   
    90   82   84 2   
    91   83   91 1   
    92   83   92 1   
    93   93   94 1   
    94   93  100 1   
    95   94   95 1   
    96   94   97 1   
    97   94  101 1   
    98   95   96 2   
    99   95  109 1   
   100   97   98 1   
   101   97   99 1   
   102   97  102 1   
   103   98  103 1   
   104   98  104 1   
   105   98  105 1   
   106   99  106 1   
   107   99  107 1   
   108   99  108 1   
   109  109  110 1   
   110  109  117 1   
   111  110  111 1   
   112  110  113 1   
   113  110  118 1   
   114  111  112 2   
   115  111  123 1   
   116  113  114 1   
   117  113  119 1   
   118  113  120 1   
   119  114  115 1   
   120  114  116 2   
   121  115  121 1   
   122  115  122 1   
   123  123  124 1   
   124  123  135 1   
   125  124  125 1   
   126  124  127 1   
   127  124  136 1   
   128  125  126 2   
   129  125  144 1   
   130  127  128 1   
   131  127  137 1   
   132  127  138 1   
   133  128  129 ar  
   134  128  130 ar  
   135  129  131 ar  
   136  129  139 1   
   137  130  132 ar  
   138  130  140 1   
   139  131  133 ar  
   140  131  141 1   
   141  132  133 ar  
   142  132  142 1   
   143  133  134 1   
   144  134  143 1   
   145  144  145 1   
   146  144  153 1   
   147  145  146 1   
   148  145  148 1   
   149  145  154 1   
   150  146  147 2   
   151  146  159 1   
   152  148  149 1   
   153  148  155 1   
   154  148  156 1   
   155  149  150 1   
   156  149  157 1   
   157  149  158 1   
   158  150  151 1   
   159  150  152 1   
   160  159  160 1   
   161  159  168 1   
   162  160  161 1   
   163  160  163 1   
   164  160  169 1   
   165  161  162 2   
   166  161  174 1   
   167  163  164 1   
   168  163  170 1   
   169  163  171 1   
   170  164  165 1   
   171  164  172 1   
   172  164  173 1   
   173  165  166 1   
   174  165  167 1   
   175  174  175 1   
   176  174  179 1   
   177  175  176 1   
   178  175  177 1   
   179  175  178 1   
   180  181  182 1   
   181  181  183 1   
   182  184  185 1   
   183  184  186 1   
@<TRIPOS>SUBSTRUCTURE
     1 MOL         1 TEMP              0 ****  ****    0 ROOT
