@<TRIPOS>MOLECULE
MOL
  175   173     1     0     0
SMALL
resp


@<TRIPOS>ATOM
      1 C1          0.2750    4.2270    5.5970 c3        1 MOL     -0.378067
      2 C2         -0.2980    4.0950    4.2150 c         1 MOL      0.765394
      3 O1          0.4360    4.1450    3.2340 o         1 MOL     -0.550920
      4 H1          1.3150    3.8990    5.5920 hc        1 MOL      0.092344
      5 H2          0.2250    5.2680    5.9150 hc        1 MOL      0.092344
      6 H3         -0.2960    3.6080    6.2890 hc        1 MOL      0.092344
      7 N1         -1.6670    3.8950    4.0620 n         1 MOL     -0.823048
      8 C3         -2.3680    3.5810    2.7400 c3        1 MOL      0.375456
      9 C4         -2.4590    4.8430    1.7950 c         1 MOL      0.587719
     10 O2         -2.5480    6.0120    2.2590 o         1 MOL     -0.582880
     11 C5         -3.6360    2.7060    2.9170 c3        1 MOL     -0.305730
     12 C6         -4.3150    2.3770    1.5490 c         1 MOL      0.612569
     13 O3         -5.4810    2.7940    1.3280 o         1 MOL     -0.614583
     14 O4         -3.6090    1.9520    0.6270 o         1 MOL     -0.614583
     15 H4         -2.1630    3.9690    4.9470 hn        1 MOL      0.345072
     16 H5         -1.5640    3.0110    2.2750 h1        1 MOL      0.076082
     17 H6         -4.3550    3.1730    3.5880 hc        1 MOL      0.056371
     18 H7         -3.3230    1.7730    3.4010 hc        1 MOL      0.056371
     19 N2         -2.5070    4.5870    0.4790 n         1 MOL     -0.717623
     20 C7         -2.8030    5.5950   -0.5880 c3        1 MOL      0.439098
     21 C8         -3.8240    5.0530   -1.7490 c         1 MOL      0.395487
     22 O5         -3.9360    5.7780   -2.7720 o         1 MOL     -0.567569
     23 C9         -1.4590    5.9690   -1.2520 c3        1 MOL     -0.348806
     24 H8         -2.2930    3.6440    0.1980 hn        1 MOL      0.356794
     25 H9         -3.3120    6.5070   -0.2810 h1        1 MOL     -0.002055
     26 H10        -0.6700    6.1600   -0.5200 hc        1 MOL      0.086031
     27 H11        -1.0770    5.2340   -1.9690 hc        1 MOL      0.086031
     28 H12        -1.5390    6.9190   -1.7710 hc        1 MOL      0.086031
     29 N3         -4.4180    3.8620   -1.6780 n         1 MOL     -0.403319
     30 C10        -5.1160    3.3120   -2.8420 c3        1 MOL      0.267007
     31 C11        -6.3720    2.4780   -2.4520 c         1 MOL      0.285905
     32 O6         -7.2300    2.3270   -3.3070 o         1 MOL     -0.546281
     33 C12        -4.1880    2.3850   -3.6450 c3        1 MOL     -0.096076
     34 C13        -3.5200    1.2620   -2.8470 c         1 MOL      0.658284
     35 O7         -4.2430    0.5740   -2.0510 o         1 MOL     -0.696398
     36 O8         -2.3150    1.2880   -2.6540 o         1 MOL     -0.696398
     37 H13        -4.2570    3.2490   -0.8960 hn        1 MOL      0.288179
     38 H14        -5.4500    4.1500   -3.4550 h1        1 MOL      0.037508
     39 H15        -3.4110    3.0450   -4.0380 hc        1 MOL      0.014962
     40 H16        -4.7720    2.0140   -4.4910 hc        1 MOL      0.014962
     41 N4         -6.4820    1.9830   -1.2090 n         1 MOL     -0.054957
     42 C14        -7.5360    1.0320   -0.8290 c3        1 MOL     -0.096540
     43 C15        -7.2910   -0.4890   -0.7590 c         1 MOL      0.500865
     44 O9         -8.2160   -1.2820   -0.3500 o         1 MOL     -0.649737
     45 H17        -5.7690    2.2780   -0.5680 hn        1 MOL      0.037601
     46 H18        -8.3870    1.1540   -1.5090 h1        1 MOL      0.071293
     47 H19        -7.7790    1.4190    0.1500 h1        1 MOL      0.071293
     48 N5         -6.1870   -1.0720   -1.1910 n         1 MOL     -0.154041
     49 C16        -6.0830   -2.4020   -1.8290 c3        1 MOL      0.077112
     50 C17        -5.9090   -3.6160   -0.7990 c         1 MOL      0.560736
     51 O10        -5.8860   -4.7500   -1.2070 o         1 MOL     -0.535971
     52 C18        -5.1110   -2.2790   -3.0150 c3        1 MOL     -0.302701
     53 C19        -3.6660   -2.4070   -2.6170 c         1 MOL      0.618409
     54 N6         -2.7040   -2.6940   -3.4770 n         1 MOL     -0.643277
     55 O11        -3.3010   -2.1930   -1.5150 o         1 MOL     -0.564705
     56 H20        -5.3940   -0.5160   -1.4630 hn        1 MOL      0.144961
     57 H21        -7.0450   -2.7180   -2.2070 h1        1 MOL      0.064300
     58 H22        -5.1850   -1.3840   -3.6340 hc        1 MOL      0.092140
     59 H23        -5.3520   -3.1210   -3.6580 hc        1 MOL      0.092140
     60 H24        -2.9540   -2.9540   -4.4140 hn        1 MOL      0.316855
     61 H25        -1.7310   -2.6960   -3.1800 hn        1 MOL      0.316855
     62 N7         -5.9010   -3.3000    0.5480 n         1 MOL     -0.442086
     63 C20        -5.7760   -4.3390    1.6110 c3        1 MOL     -0.063647
     64 C21        -4.3580   -4.7480    2.0320 c         1 MOL      0.406188
     65 O12        -3.9840   -5.5070    2.8990 o         1 MOL     -0.584699
     66 H26        -5.8730   -2.3370    0.8170 hn        1 MOL      0.298802
     67 H27        -6.3070   -5.2390    1.3240 h1        1 MOL      0.088771
     68 H28        -6.3300   -4.0730    2.5160 h1        1 MOL      0.088771
     69 N8         -3.4740   -4.2360    1.2320 n         1 MOL     -0.100625
     70 C22        -2.0090   -4.5390    1.3040 c3        1 MOL     -0.038987
     71 C23        -1.1480   -3.2940    1.4470 c         1 MOL      0.283799
     72 O13        -1.3620   -2.3000    0.7490 o         1 MOL     -0.372495
     73 C24        -1.5290   -5.3820    0.1500 c3        1 MOL      0.425023
     74 C25        -1.9700   -6.7990    0.2090 c3        1 MOL     -0.318314
     75 O14        -2.0160   -4.7640   -1.0590 oh        1 MOL     -0.607990
     76 H29        -3.8410   -3.6340    0.5060 hn        1 MOL      0.157718
     77 H30        -1.7620   -5.0880    2.2090 h1        1 MOL      0.060375
     78 H31        -0.4480   -5.2650    0.1990 h1        1 MOL     -0.015627
     79 H32        -2.0280   -3.8150   -0.9420 ho        1 MOL      0.342617
     80 H33        -1.4190   -7.3280    0.9800 hc        1 MOL      0.079736
     81 H34        -3.0310   -6.8020    0.4700 hc        1 MOL      0.079736
     82 H35        -1.7560   -7.3980   -0.6720 hc        1 MOL      0.079736
     83 N9         -0.1170   -3.4560    2.2770 n         1 MOL     -0.303148
     84 C26         1.0790   -2.5850    2.2140 c3        1 MOL     -0.231061
     85 C27         1.7710   -3.0180    0.9340 c         1 MOL      0.487511
     86 O15         2.2420   -4.1660    0.7640 o         1 MOL     -0.592112
     87 C28         2.0190   -2.8090    3.3860 c3        1 MOL      0.080626
     88 C29         1.3200   -2.2300    4.6090 c3        1 MOL      0.165159
     89 C30         3.3920   -2.1800    3.3370 c3        1 MOL     -0.087166
     90 C31         1.9520   -2.5260    5.9780 c3        1 MOL     -0.257915
     91 H36        -0.0030   -4.3010    2.8110 hn        1 MOL      0.289588
     92 H37         0.8820   -1.5110    2.2210 h1        1 MOL      0.023079
     93 H38         2.0920   -3.8780    3.5940 hc        1 MOL      0.009849
     94 H39         0.3100   -2.6040    4.7150 hc        1 MOL     -0.005823
     95 H40         1.2720   -1.1440    4.6600 hc        1 MOL     -0.005823
     96 H41         3.9760   -2.5030    4.2020 hc        1 MOL      0.023189
     97 H42         3.9150   -2.5330    2.4400 hc        1 MOL      0.023189
     98 H43         3.3920   -1.0880    3.3460 hc        1 MOL      0.023189
     99 H44         1.3700   -1.9160    6.6770 hc        1 MOL      0.048432
    100 H45         1.7630   -3.5730    6.1980 hc        1 MOL      0.048432
    101 H46         2.9790   -2.1840    6.1100 hc        1 MOL      0.048432
    102 N10         1.8680   -2.0960    0.0240 n         1 MOL     -0.047683
    103 C32         2.7150   -2.1210   -1.1900 c3        1 MOL     -0.019683
    104 C33         4.0940   -1.6290   -0.9300 c         1 MOL      0.500529
    105 O16         4.2420   -0.7960   -0.0010 o         1 MOL     -0.374035
    106 C34         2.0590   -1.2310   -2.2650 c3        1 MOL     -0.248193
    107 C35         0.6010   -1.6400   -2.5340 c         1 MOL      0.692471
    108 O17        -0.2980   -1.0500   -1.8880 o         1 MOL     -0.666130
    109 O18         0.3120   -2.4020   -3.4950 o         1 MOL     -0.666130
    110 H47         1.4310   -1.2130    0.2120 hn        1 MOL      0.078629
    111 H48         2.7430   -3.1190   -1.6430 h1        1 MOL      0.072587
    112 H49         2.5610   -1.3300   -3.2320 hc        1 MOL      0.076853
    113 H50         2.0960   -0.2420   -1.8210 hc        1 MOL      0.076853
    114 N11         5.1470   -1.8660   -1.8190 n         1 MOL     -0.741097
    115 C36         6.5100   -1.2750   -1.6520 c3        1 MOL      0.516493
    116 C37         6.5630    0.2300   -1.2750 c         1 MOL      0.253174
    117 O19         7.3080    0.5040   -0.2800 o         1 MOL     -0.487167
    118 C38         7.4590   -1.7190   -2.7770 c3        1 MOL     -0.284069
    119 C39         8.9180   -1.5190   -2.4530 ca        1 MOL      0.231867
    120 C40         9.4900   -2.1730   -1.3500 ca        1 MOL     -0.289421
    121 C41         9.6230   -0.5720   -3.2110 ca        1 MOL     -0.289421
    122 C42        10.7970   -1.8510   -0.9860 ca        1 MOL      0.007136
    123 C43        10.8640   -0.1530   -2.7680 ca        1 MOL      0.007136
    124 C44        11.4850   -0.8150   -1.6880 ca        1 MOL     -0.256395
    125 H51         4.8600   -2.4690   -2.5770 hn        1 MOL      0.351586
    126 H52         6.9980   -1.7830   -0.8200 h1        1 MOL      0.020475
    127 H53         7.2440   -1.1810   -3.7060 hc        1 MOL      0.071967
    128 H54         7.3780   -2.7990   -2.9130 hc        1 MOL      0.071967
    129 H55         8.9710   -2.9260   -0.7650 ha        1 MOL      0.146970
    130 H56         9.1330   -0.1490   -4.0760 ha        1 MOL      0.146970
    131 H57        11.3130   -2.2520   -0.1320 ha        1 MOL      0.091944
    132 H58        11.3270    0.6710   -3.2710 ha        1 MOL      0.091944
    133 H59        12.4030   -0.4530   -1.2520 ha        1 MOL      0.135472
    134 N12         5.9300    1.2040   -1.9240 n         1 MOL     -0.085585
    135 C45         6.1260    2.6060   -1.6130 c3        1 MOL     -0.002464
    136 C46         5.5620    2.8960   -0.2250 c         1 MOL      0.307900
    137 O20         5.9540    3.9300    0.2960 o         1 MOL     -0.534242
    138 C47         5.4150    3.4120   -2.7000 c3        1 MOL     -0.103770
    139 C48         4.4690    2.4090   -3.3150 c3        1 MOL      0.025058
    140 C49         4.9790    0.9760   -2.9470 c3        1 MOL     -0.056713
    141 H60         7.1610    2.9460   -1.5670 h1        1 MOL      0.103067
    142 H61         4.8210    4.2760   -2.4010 hc        1 MOL      0.056333
    143 H62         6.1450    3.7530   -3.4390 hc        1 MOL      0.056333
    144 H63         3.4820    2.5920   -2.8920 hc        1 MOL      0.022327
    145 H64         4.4560    2.4830   -4.4050 hc        1 MOL      0.022327
    146 H65         4.1520    0.4510   -2.4700 h1        1 MOL      0.043100
    147 H66         5.2630    0.4850   -3.8770 h1        1 MOL      0.043100
    148 N13         4.7140    2.1070    0.4490 n         1 MOL      0.064274
    149 C50         4.0330    2.2500    1.6940 c3        1 MOL     -0.154604
    150 C51         4.7630    1.5290    2.8300 c         1 MOL      0.374912
    151 O21         4.8040    2.0120    3.9860 o         1 MOL     -0.560021
    152 C52         2.6200    1.7480    1.6900 c3        1 MOL      0.169692
    153 C53         1.6650    2.4100    0.6330 c3        1 MOL     -0.350232
    154 C54         0.3740    1.5550    0.3550 c         1 MOL      0.666700
    155 O22         0.2890    0.3620    0.7820 o         1 MOL     -0.652737
    156 O23        -0.6310    2.0270   -0.1580 o         1 MOL     -0.652737
    157 H67         4.6970    1.1940    0.0300 hn        1 MOL      0.048218
    158 H68         4.0060    3.2880    2.0170 h1        1 MOL      0.102650
    159 H69         2.1840    1.8330    2.6900 hc        1 MOL      0.016047
    160 H70         2.6460    0.6670    1.5250 hc        1 MOL      0.016047
    161 H71         2.0750    2.4050   -0.3700 hc        1 MOL      0.113585
    162 H72         1.4590    3.4280    0.9820 hc        1 MOL      0.113585
    163 N14         5.4700    0.4570    2.5210 n         1 MOL      0.049567
    164 C55         6.5170   -0.0680    3.4200 c3        1 MOL     -0.088591
    165 H73         6.5370   -1.1570    3.3560 h1        1 MOL      0.043573
    166 H74         7.4870    0.3310    3.1210 h1        1 MOL      0.043573
    167 H75         6.3000    0.2310    4.4450 h1        1 MOL      0.043573
    168 H76         5.4660    0.1390    1.5670 hn        1 MOL      0.020334
    169 Ca1        -2.2410   -0.0690   -0.4520 Ca        1 MOL      1.684207
    170 O24        -4.0890   -1.0180    1.5960 oh        1 MOL     -0.874056
    171 H77        -3.3350   -0.8090    2.1600 ho        1 MOL      0.411265
    172 H78        -4.8470   -0.8160    2.1430 ho        1 MOL      0.411265
    173 O25        -1.7220   -0.0680    2.5550 oh        1 MOL     -0.874056
    174 H79        -1.6170    0.2560    3.4450 ho        1 MOL      0.411265
    175 H80        -0.8370   -0.2900    2.2700 ho        1 MOL      0.411265
@<TRIPOS>BOND
     1    1    2 1   
     2    1    4 1   
     3    1    5 1   
     4    1    6 1   
     5    2    3 2   
     6    2    7 1   
     7    7    8 1   
     8    7   15 1   
     9    8    9 1   
    10    8   11 1   
    11    8   16 1   
    12    9   10 2   
    13    9   19 1   
    14   11   12 1   
    15   11   17 1   
    16   11   18 1   
    17   12   13 1   
    18   12   14 1   
    19   19   20 1   
    20   19   24 1   
    21   20   21 1   
    22   20   23 1   
    23   20   25 1   
    24   21   22 2   
    25   21   29 1   
    26   23   26 1   
    27   23   27 1   
    28   23   28 1   
    29   29   30 1   
    30   29   37 1   
    31   30   31 1   
    32   30   33 1   
    33   30   38 1   
    34   31   32 2   
    35   31   41 1   
    36   33   34 1   
    37   33   39 1   
    38   33   40 1   
    39   34   35 1   
    40   34   36 1   
    41   41   42 1   
    42   41   45 1   
    43   42   43 1   
    44   42   46 1   
    45   42   47 1   
    46   43   44 2   
    47   43   48 1   
    48   48   49 1   
    49   48   56 1   
    50   49   50 1   
    51   49   52 1   
    52   49   57 1   
    53   50   51 2   
    54   50   62 1   
    55   52   53 1   
    56   52   58 1   
    57   52   59 1   
    58   53   54 1   
    59   53   55 2   
    60   54   60 1   
    61   54   61 1   
    62   62   63 1   
    63   62   66 1   
    64   63   64 1   
    65   63   67 1   
    66   63   68 1   
    67   64   65 2   
    68   64   69 1   
    69   69   70 1   
    70   69   76 1   
    71   70   71 1   
    72   70   73 1   
    73   70   77 1   
    74   71   72 2   
    75   71   83 1   
    76   73   74 1   
    77   73   75 1   
    78   73   78 1   
    79   74   80 1   
    80   74   81 1   
    81   74   82 1   
    82   75   79 1   
    83   83   84 1   
    84   83   91 1   
    85   84   85 1   
    86   84   87 1   
    87   84   92 1   
    88   85   86 2   
    89   85  102 1   
    90   87   88 1   
    91   87   89 1   
    92   87   93 1   
    93   88   90 1   
    94   88   94 1   
    95   88   95 1   
    96   89   96 1   
    97   89   97 1   
    98   89   98 1   
    99   90   99 1   
   100   90  100 1   
   101   90  101 1   
   102  102  103 1   
   103  102  110 1   
   104  103  104 1   
   105  103  106 1   
   106  103  111 1   
   107  104  105 2   
   108  104  114 1   
   109  106  107 1   
   110  106  112 1   
   111  106  113 1   
   112  107  108 1   
   113  107  109 1   
   114  114  115 1   
   115  114  125 1   
   116  115  116 1   
   117  115  118 1   
   118  115  126 1   
   119  116  117 2   
   120  116  134 1   
   121  118  119 1   
   122  118  127 1   
   123  118  128 1   
   124  119  120 ar  
   125  119  121 ar  
   126  120  122 ar  
   127  120  129 1   
   128  121  123 ar  
   129  121  130 1   
   130  122  124 ar  
   131  122  131 1   
   132  123  124 ar  
   133  123  132 1   
   134  124  133 1   
   135  134  135 1   
   136  134  140 1   
   137  135  136 1   
   138  135  138 1   
   139  135  141 1   
   140  136  137 2   
   141  136  148 1   
   142  138  139 1   
   143  138  142 1   
   144  138  143 1   
   145  139  140 1   
   146  139  144 1   
   147  139  145 1   
   148  140  146 1   
   149  140  147 1   
   150  148  149 1   
   151  148  157 1   
   152  149  150 1   
   153  149  152 1   
   154  149  158 1   
   155  150  151 2   
   156  150  163 1   
   157  152  153 1   
   158  152  159 1   
   159  152  160 1   
   160  153  154 1   
   161  153  161 1   
   162  153  162 1   
   163  154  155 1   
   164  154  156 1   
   165  163  164 1   
   166  163  168 1   
   167  164  165 1   
   168  164  166 1   
   169  164  167 1   
   170  170  171 1   
   171  170  172 1   
   172  173  174 1   
   173  173  175 1   
@<TRIPOS>SUBSTRUCTURE
     1 MOL         1 TEMP              0 ****  ****    0 ROOT
