@<TRIPOS>MOLECULE
MOL
  179   176     1     0     0
SMALL
resp


@<TRIPOS>ATOM
      1 C1          1.9220    3.5520    4.2450 c3        1 MOL     -0.225873
      2 C2          1.1750    3.2050    2.9850 c         1 MOL      0.417411
      3 O1          1.7630    3.2720    1.8670 o         1 MOL     -0.456222
      4 H1          1.2490    4.0570    4.9380 hc        1 MOL      0.063916
      5 H2          2.3000    2.6400    4.7070 hc        1 MOL      0.063916
      6 H3          2.7560    4.2110    4.0040 hc        1 MOL      0.063916
      7 N1         -0.1310    2.9170    3.1550 n         1 MOL     -0.471410
      8 C3         -1.0650    2.6770    2.1380 c3        1 MOL      0.103021
      9 C4         -1.6860    3.9270    1.5220 c         1 MOL      0.476043
     10 O2         -2.9260    4.2500    1.6740 o         1 MOL     -0.501734
     11 C5         -2.2120    1.7330    2.5660 c3        1 MOL     -0.041053
     12 C6         -3.2000    1.2910    1.4820 c         1 MOL      0.503038
     13 O3         -4.2800    0.7970    1.9140 o         1 MOL     -0.594331
     14 O4         -2.9280    1.2870    0.2390 o         1 MOL     -0.594331
     15 H4         -0.4080    2.8470    4.1180 hn        1 MOL      0.327291
     16 H5         -0.4650    2.1890    1.3680 h1        1 MOL     -0.090182
     17 H6         -2.7560    2.1730    3.3950 hc        1 MOL      0.022134
     18 H7         -1.7770    0.8480    3.0230 hc        1 MOL      0.022134
     19 N2         -0.8360    4.6900    0.9030 n         1 MOL     -0.331549
     20 C7         -1.1230    6.0260    0.3840 c3        1 MOL     -0.056957
     21 C8         -2.3350    6.0720   -0.6490 c         1 MOL      0.404450
     22 O5         -3.1290    7.0390   -0.6520 o         1 MOL     -0.533763
     23 C9          0.1370    6.7240   -0.2540 c3        1 MOL     -0.180699
     24 C10         1.1840    6.9610    0.8130 c3        1 MOL      0.300112
     25 C11         2.2790    7.8990    0.3560 c3        1 MOL     -0.065261
     26 C12         3.1450    8.3260    1.5270 c3        1 MOL     -0.022509
     27 N3          3.9290    7.2850    2.0980 n4        1 MOL     -0.314348
     28 H8          0.1400    4.4520    0.8940 hn        1 MOL      0.316286
     29 H9         -1.4220    6.6160    1.2520 h1        1 MOL      0.102776
     30 H10        -0.2000    7.5980   -0.8300 hc        1 MOL      0.065451
     31 H11         0.6610    6.0920   -0.9590 hc        1 MOL      0.065451
     32 H12         1.7160    6.0610    1.0840 hc        1 MOL     -0.080942
     33 H13         0.6840    7.3090    1.7150 hc        1 MOL     -0.080942
     34 H14         1.8530    8.7510   -0.1740 hc        1 MOL      0.048969
     35 H15         2.9340    7.2810   -0.2600 hc        1 MOL      0.048969
     36 H16         2.5260    8.8330    2.2640 hx        1 MOL      0.087290
     37 H17         3.7710    9.0990    1.0870 hx        1 MOL      0.087290
     38 H18         4.4770    6.7360    1.4400 hn        1 MOL      0.327738
     39 H19         4.5690    7.6870    2.7740 hn        1 MOL      0.327738
     40 H20         3.3030    6.6980    2.6380 hn        1 MOL      0.327738
     41 N4         -2.5000    4.9780   -1.3490 n         1 MOL     -0.169964
     42 C13        -3.5710    4.7610   -2.3370 c3        1 MOL     -0.108619
     43 C14        -4.9280    4.3060   -1.7270 c         1 MOL      0.422841
     44 O6         -5.9470    4.4670   -2.4850 o         1 MOL     -0.519649
     45 C15        -3.0340    3.7550   -3.3900 c3        1 MOL     -0.198918
     46 C16        -2.3780    2.5200   -2.8280 c         1 MOL      0.745381
     47 O7         -1.2580    2.6050   -2.2330 o         1 MOL     -0.745549
     48 O8         -2.8070    1.3700   -3.1400 o         1 MOL     -0.745549
     49 H21        -1.8610    4.2130   -1.2300 hn        1 MOL      0.185188
     50 H22        -3.7460    5.7310   -2.8110 h1        1 MOL      0.131493
     51 H23        -2.2650    4.2710   -3.9610 hc        1 MOL      0.077020
     52 H24        -3.8140    3.5330   -4.1060 hc        1 MOL      0.077020
     53 N5         -5.0580    3.8630   -0.4700 n         1 MOL     -0.176007
     54 C17        -6.4150    3.3770   -0.0420 c3        1 MOL     -0.241450
     55 C18        -6.9230    2.0180   -0.5330 c         1 MOL      0.534714
     56 O9         -8.1170    1.7910   -0.6390 o         1 MOL     -0.558061
     57 H25        -4.2850    3.8630    0.1750 hn        1 MOL      0.246557
     58 H26        -7.1850    4.1120   -0.2690 h1        1 MOL      0.126041
     59 H27        -6.3240    3.2940    1.0450 h1        1 MOL      0.126041
     60 N6         -6.0820    1.0370   -0.9230 n         1 MOL     -0.165595
     61 C19        -6.4490   -0.3250   -1.4010 c3        1 MOL     -0.114313
     62 C20        -6.5360   -1.5130   -0.3710 c         1 MOL      0.322058
     63 O10        -7.0240   -2.5630   -0.6950 o         1 MOL     -0.450496
     64 C21        -5.6070   -0.7620   -2.6240 c3        1 MOL     -0.010285
     65 C22        -4.2230   -1.2680   -2.1570 c         1 MOL      0.524600
     66 N7         -3.6880   -2.0190   -3.0660 n         1 MOL     -0.777772
     67 O11        -3.6790   -0.9880   -1.1480 o         1 MOL     -0.403776
     68 H28        -5.0890    1.1940   -0.8460 hn        1 MOL      0.115149
     69 H29        -7.4200   -0.2910   -1.9030 h1        1 MOL      0.127334
     70 H30        -5.4730    0.0830   -3.3000 hc        1 MOL      0.036533
     71 H31        -6.2080   -1.5280   -3.1110 hc        1 MOL      0.036533
     72 H32        -4.2230   -2.2880   -3.8710 hn        1 MOL      0.356180
     73 H33        -2.7810   -2.4370   -2.9170 hn        1 MOL      0.356180
     74 N8         -6.0510   -1.2650    0.8320 n         1 MOL     -0.078967
     75 C23        -5.9810   -2.1920    1.9540 c3        1 MOL     -0.346177
     76 C24        -4.6580   -2.8020    2.3130 c         1 MOL      0.783562
     77 O12        -4.5710   -3.4020    3.3320 o         1 MOL     -0.607018
     78 H34        -5.3520   -0.5470    0.9590 hn        1 MOL      0.096435
     79 H35        -6.6430   -3.0400    1.7940 h1        1 MOL      0.144332
     80 H36        -6.3780   -1.6520    2.8110 h1        1 MOL      0.144332
     81 N9         -3.6120   -2.5950    1.4920 n         1 MOL     -0.754187
     82 C25        -2.5130   -3.5290    1.4580 c3        1 MOL      0.485559
     83 C26        -1.1710   -2.8570    1.2990 c         1 MOL      0.361227
     84 O13        -1.0740   -1.8220    0.5740 o         1 MOL     -0.697652
     85 C27        -2.6580   -4.5200    0.3910 c3        1 MOL     -0.194841
     86 C28        -3.8780   -5.5030    0.4640 ca        1 MOL      0.029079
     87 C29        -5.1310   -5.0770   -0.1480 ca        1 MOL     -0.120259
     88 C30        -3.7450   -6.8190    0.9010 ca        1 MOL     -0.120259
     89 C31        -6.1150   -6.0310   -0.2600 ca        1 MOL     -0.269364
     90 C32        -4.7750   -7.7710    0.7070 ca        1 MOL     -0.269364
     91 C33        -5.9800   -7.4010    0.0840 ca        1 MOL      0.346391
     92 O14        -7.0130   -8.3430   -0.0610 oh        1 MOL     -0.471812
     93 H37        -3.7760   -1.9080    0.7700 hn        1 MOL      0.511851
     94 H38        -2.5380   -4.0640    2.4120 h1        1 MOL     -0.007894
     95 H39        -1.6680   -4.9470    0.2790 hc        1 MOL      0.044077
     96 H40        -2.8210   -3.9420   -0.5170 hc        1 MOL      0.044077
     97 H41        -5.2020   -4.0950   -0.5860 ha        1 MOL      0.105280
     98 H42        -2.8430   -7.1100    1.4130 ha        1 MOL      0.105280
     99 H43        -7.0350   -5.7190   -0.7370 ha        1 MOL      0.141458
    100 H44        -4.6470   -8.8000    1.0360 ha        1 MOL      0.141458
    101 H45        -6.7300   -9.1490    0.3770 ho        1 MOL      0.339869
    102 N10        -0.0800   -3.4780    1.8180 n         1 MOL     -0.325470
    103 C34         1.2930   -2.9360    1.5920 c3        1 MOL     -0.125624
    104 C35         2.3590   -3.9380    1.1400 c         1 MOL      0.595695
    105 O15         2.1590   -5.1360    1.4320 o         1 MOL     -0.553866
    106 C36         1.8530   -2.0150    2.7050 c3        1 MOL     -0.001242
    107 C37         2.0810   -2.7180    4.1240 c3        1 MOL     -0.018386
    108 C38         1.0770   -0.7530    2.9410 c3        1 MOL     -0.077545
    109 C39         2.9410   -1.9310    5.1330 c3        1 MOL     -0.137656
    110 H46        -0.1110   -4.2820    2.4310 hn        1 MOL      0.267919
    111 H47         1.2500   -2.2890    0.7130 h1        1 MOL      0.157198
    112 H48         2.8480   -1.7050    2.3970 hc        1 MOL      0.023614
    113 H49         2.7210   -3.5550    3.8520 hc        1 MOL      0.023734
    114 H50         1.1360   -3.0300    4.5700 hc        1 MOL      0.023734
    115 H51         0.3970   -0.5660    2.1050 hc        1 MOL      0.064771
    116 H52         0.5540   -0.7100    3.9010 hc        1 MOL      0.064771
    117 H53         1.7540    0.0960    2.9990 hc        1 MOL      0.064771
    118 H54         2.2740   -1.1240    5.4720 hc        1 MOL      0.035806
    119 H55         3.1040   -2.5100    6.0400 hc        1 MOL      0.035806
    120 H56         3.8660   -1.5790    4.6640 hc        1 MOL      0.035806
    121 N11         3.2780   -3.3890    0.3200 n         1 MOL     -0.198732
    122 C40         4.3660   -4.1360   -0.2920 c3        1 MOL     -0.011149
    123 C41         5.8010   -3.5440   -0.0550 c         1 MOL      0.524753
    124 O16         5.9730   -2.5750    0.7070 o         1 MOL     -0.485290
    125 C42         4.0710   -4.1680   -1.8080 c3        1 MOL     -0.119623
    126 O17         4.0310   -2.8720   -2.3790 oh        1 MOL     -0.458036
    127 H57         3.1380   -2.4290    0.0260 hn        1 MOL      0.007432
    128 H58         4.3930   -5.1240    0.1480 h1        1 MOL      0.075095
    129 H59         3.1380   -4.7330   -1.8750 h1        1 MOL      0.088579
    130 H60         4.7970   -4.7570   -2.3860 h1        1 MOL      0.088579
    131 H61         3.3600   -2.8530   -3.0730 ho        1 MOL      0.390845
    132 N12         6.8090   -4.0890   -0.7170 n         1 MOL     -0.444711
    133 C43         8.2120   -3.7140   -0.6360 c3        1 MOL      0.157564
    134 C44         8.5510   -2.3830   -1.2730 c         1 MOL      0.401235
    135 O18         9.4870   -1.6270   -0.9930 o         1 MOL     -0.477321
    136 C45         8.8930   -4.8610   -1.2390 c3        1 MOL     -0.293838
    137 H62         6.6190   -4.8760   -1.3240 hn        1 MOL      0.289946
    138 H63         8.4640   -3.5690    0.4150 h1        1 MOL      0.091385
    139 H64         8.4060   -5.0320   -2.2040 hc        1 MOL      0.091436
    140 H65         9.9700   -4.7010   -1.1830 hc        1 MOL      0.091436
    141 H66         8.7470   -5.7620   -0.6450 hc        1 MOL      0.091436
    142 N13         7.7080   -1.9070   -2.2730 n         1 MOL     -0.315376
    143 C46         7.7540   -0.6090   -2.9550 c3        1 MOL      0.030478
    144 C47         7.3830    0.5260   -2.0190 c         1 MOL      0.402215
    145 O19         8.1640    1.4430   -1.7630 o         1 MOL     -0.511542
    146 C48         6.7330   -0.6680   -4.0410 c3        1 MOL     -0.219390
    147 H67         6.9180   -2.5080   -2.4320 hn        1 MOL      0.199829
    148 H68         8.7340   -0.3790   -3.3770 h1        1 MOL      0.116789
    149 H69         5.7960   -1.0760   -3.6540 hc        1 MOL      0.061741
    150 H70         6.4840    0.2180   -4.6230 hc        1 MOL      0.061741
    151 H71         7.1550   -1.2390   -4.8610 hc        1 MOL      0.061741
    152 N14         6.1930    0.4330   -1.4800 n         1 MOL     -0.175555
    153 C49         5.5700    1.6260   -0.6730 c3        1 MOL     -0.201234
    154 C50         6.1330    1.7770    0.7750 c         1 MOL      0.542378
    155 O20         6.1920    2.8610    1.3620 o         1 MOL     -0.581542
    156 C51         4.0360    1.6440   -0.7060 c3        1 MOL     -0.024533
    157 C52         3.3800    0.3090   -0.2170 c3        1 MOL      0.015353
    158 C53         1.8840    0.1540   -0.5610 c         1 MOL      0.749233
    159 O21         1.5550   -0.7900   -1.3250 o         1 MOL     -0.701233
    160 O22         1.0780    1.0990   -0.3270 o         1 MOL     -0.701233
    161 H72         5.4940   -0.2060   -1.8380 hn        1 MOL      0.246205
    162 H73         5.8920    2.5310   -1.1990 h1        1 MOL      0.120552
    163 H74         3.6680    1.7750   -1.7210 hc        1 MOL      0.023574
    164 H75         3.6360    2.4130   -0.0400 hc        1 MOL      0.023574
    165 H76         3.4530    0.3310    0.8770 hc        1 MOL     -0.030855
    166 H77         4.0000   -0.5260   -0.5190 hc        1 MOL     -0.030855
    167 N15         6.5070    0.6440    1.3790 n         1 MOL     -0.124281
    168 C54         7.3600    0.5760    2.5270 c3        1 MOL     -0.151825
    169 H78         7.9810    1.4700    2.5710 h1        1 MOL      0.076503
    170 H79         6.7520    0.5130    3.4290 h1        1 MOL      0.076503
    171 H80         7.9980   -0.3050    2.4550 h1        1 MOL      0.076503
    172 H81         6.2960   -0.1850    0.8440 hn        1 MOL      0.164496
    173 Ca1        -1.1570    0.1270   -1.3600 Ca        1 MOL      1.700636
    174 O23        -0.7390   -2.3630   -2.2690 oh        1 MOL     -0.850256
    175 H82         0.1030   -2.2660   -2.7250 ho        1 MOL      0.421692
    176 H83        -0.5830   -3.0690   -1.6440 ho        1 MOL      0.421692
    177 O24        -0.0460    0.1770   -3.7600 oh        1 MOL     -0.850256
    178 H84        -0.1480    1.0310   -4.1770 ho        1 MOL      0.421692
    179 H85        -0.1960   -0.4570   -4.4670 ho        1 MOL      0.421692
@<TRIPOS>BOND
     1    1    2 1   
     2    1    4 1   
     3    1    5 1   
     4    1    6 1   
     5    2    3 2   
     6    2    7 1   
     7    7    8 1   
     8    7   15 1   
     9    8    9 1   
    10    8   11 1   
    11    8   16 1   
    12    9   10 2   
    13    9   19 1   
    14   11   12 1   
    15   11   17 1   
    16   11   18 1   
    17   12   13 1   
    18   12   14 1   
    19   19   20 1   
    20   19   28 1   
    21   20   21 1   
    22   20   23 1   
    23   20   29 1   
    24   21   22 2   
    25   21   41 1   
    26   23   24 1   
    27   23   30 1   
    28   23   31 1   
    29   24   25 1   
    30   24   32 1   
    31   24   33 1   
    32   25   26 1   
    33   25   34 1   
    34   25   35 1   
    35   26   27 1   
    36   26   36 1   
    37   26   37 1   
    38   27   38 1   
    39   27   39 1   
    40   27   40 1   
    41   41   42 1   
    42   41   49 1   
    43   42   43 1   
    44   42   45 1   
    45   42   50 1   
    46   43   44 2   
    47   43   53 1   
    48   45   46 1   
    49   45   51 1   
    50   45   52 1   
    51   46   47 1   
    52   46   48 1   
    53   53   54 1   
    54   53   57 1   
    55   54   55 1   
    56   54   58 1   
    57   54   59 1   
    58   55   56 2   
    59   55   60 1   
    60   60   61 1   
    61   60   68 1   
    62   61   62 1   
    63   61   64 1   
    64   61   69 1   
    65   62   63 2   
    66   62   74 1   
    67   64   65 1   
    68   64   70 1   
    69   64   71 1   
    70   65   66 1   
    71   65   67 2   
    72   66   72 1   
    73   66   73 1   
    74   74   75 1   
    75   74   78 1   
    76   75   76 1   
    77   75   79 1   
    78   75   80 1   
    79   76   77 2   
    80   76   81 1   
    81   81   82 1   
    82   81   93 1   
    83   82   83 1   
    84   82   85 1   
    85   82   94 1   
    86   83   84 2   
    87   83  102 1   
    88   85   86 1   
    89   85   95 1   
    90   85   96 1   
    91   86   87 ar  
    92   86   88 ar  
    93   87   89 ar  
    94   87   97 1   
    95   88   90 ar  
    96   88   98 1   
    97   89   91 ar  
    98   89   99 1   
    99   90   91 ar  
   100   90  100 1   
   101   91   92 1   
   102   92  101 1   
   103  102  103 1   
   104  102  110 1   
   105  103  104 1   
   106  103  106 1   
   107  103  111 1   
   108  104  105 2   
   109  104  121 1   
   110  106  107 1   
   111  106  108 1   
   112  106  112 1   
   113  107  109 1   
   114  107  113 1   
   115  107  114 1   
   116  108  115 1   
   117  108  116 1   
   118  108  117 1   
   119  109  118 1   
   120  109  119 1   
   121  109  120 1   
   122  121  122 1   
   123  121  127 1   
   124  122  123 1   
   125  122  125 1   
   126  122  128 1   
   127  123  124 2   
   128  123  132 1   
   129  125  126 1   
   130  125  129 1   
   131  125  130 1   
   132  126  131 1   
   133  132  133 1   
   134  132  137 1   
   135  133  134 1   
   136  133  136 1   
   137  133  138 1   
   138  134  135 2   
   139  134  142 1   
   140  136  139 1   
   141  136  140 1   
   142  136  141 1   
   143  142  143 1   
   144  142  147 1   
   145  143  144 1   
   146  143  146 1   
   147  143  148 1   
   148  144  145 2   
   149  144  152 1   
   150  146  149 1   
   151  146  150 1   
   152  146  151 1   
   153  152  153 1   
   154  152  161 1   
   155  153  154 1   
   156  153  156 1   
   157  153  162 1   
   158  154  155 2   
   159  154  167 1   
   160  156  157 1   
   161  156  163 1   
   162  156  164 1   
   163  157  158 1   
   164  157  165 1   
   165  157  166 1   
   166  158  159 1   
   167  158  160 1   
   168  167  168 1   
   169  167  172 1   
   170  168  169 1   
   171  168  170 1   
   172  168  171 1   
   173  174  175 1   
   174  174  176 1   
   175  177  178 1   
   176  177  179 1   
@<TRIPOS>SUBSTRUCTURE
     1 MOL         1 TEMP              0 ****  ****    0 ROOT
