@<TRIPOS>MOLECULE
MOL
  175   173     1     0     0
SMALL
resp


@<TRIPOS>ATOM
      1 C1          0.8580    3.9320    5.4230 c3        1 MOL     -0.276737
      2 C2          0.1410    3.7990    4.0890 c         1 MOL      0.720777
      3 O1          0.7750    3.8070    3.0320 o         1 MOL     -0.549434
      4 H1          1.8410    4.3770    5.2630 hc        1 MOL      0.065945
      5 H2          0.2760    4.5700    6.0870 hc        1 MOL      0.065945
      6 H3          0.9740    2.9470    5.8730 hc        1 MOL      0.065945
      7 N1         -1.1840    3.5720    4.0630 n         1 MOL     -0.721047
      8 C3         -1.9640    3.5170    2.7850 c3        1 MOL      0.175272
      9 C4         -1.9880    4.7970    1.9240 c         1 MOL      0.672354
     10 O2         -2.1740    5.8600    2.3800 o         1 MOL     -0.571490
     11 C5         -3.4280    3.2240    3.0920 c3        1 MOL     -0.249333
     12 C6         -4.1840    2.7580    1.7790 c         1 MOL      0.620550
     13 O3         -5.3990    3.1010    1.7860 o         1 MOL     -0.615958
     14 O4         -3.6020    2.1650    0.8610 o         1 MOL     -0.615958
     15 H4         -1.6530    3.6690    4.9540 hn        1 MOL      0.336349
     16 H5         -1.5500    2.6660    2.2350 h1        1 MOL      0.095299
     17 H6         -3.8790    4.1210    3.5160 hc        1 MOL      0.054425
     18 H7         -3.5980    2.4610    3.8540 hc        1 MOL      0.054425
     19 N2         -1.8410    4.5520    0.5880 n         1 MOL     -0.603958
     20 C7         -1.9570    5.5220   -0.5210 c3        1 MOL      0.397702
     21 C8         -3.1180    5.1730   -1.5110 c         1 MOL      0.407316
     22 O5         -3.4940    6.0840   -2.2540 o         1 MOL     -0.563401
     23 C9         -0.5700    5.6890   -1.2370 c3        1 MOL     -0.371573
     24 H8         -1.8610    3.5920    0.2830 hn        1 MOL      0.316024
     25 H9         -2.2910    6.4640   -0.0870 h1        1 MOL     -0.009655
     26 H10         0.1940    5.8690   -0.4870 hc        1 MOL      0.089886
     27 H11        -0.3740    4.8400   -1.8880 hc        1 MOL      0.089886
     28 H12        -0.6310    6.5970   -1.8400 hc        1 MOL      0.089886
     29 N3         -3.7860    3.9750   -1.4860 n         1 MOL     -0.183765
     30 C10        -4.8380    3.6030   -2.4830 c3        1 MOL     -0.060615
     31 C11        -5.9940    2.6480   -2.1420 c         1 MOL      0.436663
     32 O6         -6.8800    2.4340   -2.9830 o         1 MOL     -0.561100
     33 C12        -4.0310    2.9460   -3.6330 c3        1 MOL     -0.158794
     34 C13        -3.2200    1.7620   -3.2280 c         1 MOL      0.615855
     35 O7         -2.2390    1.4090   -3.9800 o         1 MOL     -0.652250
     36 O8         -3.6260    0.9430   -2.3660 o         1 MOL     -0.652250
     37 H13        -3.5870    3.3000   -0.7640 hn        1 MOL      0.060167
     38 H14        -5.2720    4.5080   -2.9230 h1        1 MOL      0.109288
     39 H15        -3.4660    3.7890   -4.0110 hc        1 MOL      0.055988
     40 H16        -4.7060    2.6060   -4.4140 hc        1 MOL      0.055988
     41 N4         -6.0470    2.1740   -0.8880 n         1 MOL     -0.073713
     42 C14        -7.1070    1.2760   -0.4950 c3        1 MOL     -0.200608
     43 C15        -7.1390   -0.1890   -0.9730 c         1 MOL      0.597235
     44 O9         -7.9970   -0.9610   -0.6040 o         1 MOL     -0.664890
     45 H17        -5.3600    2.4360   -0.1770 hn        1 MOL      0.081362
     46 H18        -8.0610    1.8100   -0.5120 h1        1 MOL      0.088946
     47 H19        -6.8930    1.1090    0.5570 h1        1 MOL      0.088946
     48 N5         -6.0620   -0.7200   -1.5230 n         1 MOL     -0.376741
     49 C16        -6.0880   -2.0490   -2.1340 c3        1 MOL      0.290587
     50 C17        -6.0670   -3.2110   -1.0790 c         1 MOL      0.308681
     51 O10        -5.6680   -4.3220   -1.4970 o         1 MOL     -0.492478
     52 C18        -4.9560   -2.0420   -3.2410 c3        1 MOL     -0.549126
     53 C19        -3.5560   -2.1560   -2.6810 c         1 MOL      0.850182
     54 N6         -2.5720   -2.2500   -3.5570 n         1 MOL     -0.745549
     55 O11        -3.2330   -2.0790   -1.4990 o         1 MOL     -0.676708
     56 H20        -5.4000    0.0090   -1.7440 hn        1 MOL      0.214202
     57 H21        -7.0410   -2.1170   -2.6560 h1        1 MOL      0.054925
     58 H22        -5.0630   -1.2090   -3.9370 hc        1 MOL      0.152943
     59 H23        -5.1690   -2.9570   -3.7890 hc        1 MOL      0.152943
     60 H24        -2.7340   -2.1980   -4.5490 hn        1 MOL      0.359155
     61 H25        -1.6520   -2.0460   -3.1900 hn        1 MOL      0.359155
     62 N7         -6.4550   -3.0380    0.2080 n         1 MOL     -0.252222
     63 C20        -6.5030   -4.1310    1.2320 c3        1 MOL     -0.168145
     64 C21        -5.0400   -4.5870    1.5900 c         1 MOL      0.424214
     65 O12        -4.9490   -5.6120    2.2710 o         1 MOL     -0.572208
     66 H26        -6.7910   -2.1180    0.4410 hn        1 MOL      0.295301
     67 H27        -7.0590   -4.9850    0.8230 h1        1 MOL      0.113776
     68 H28        -7.0260   -3.8430    2.1320 h1        1 MOL      0.113776
     69 N8         -3.9960   -3.9890    1.0720 n         1 MOL     -0.007333
     70 C22        -2.6150   -4.4970    1.3080 c3        1 MOL     -0.255204
     71 C23        -1.6350   -3.3560    1.3480 c         1 MOL      0.578528
     72 O13        -1.7790   -2.3360    0.7130 o         1 MOL     -0.569106
     73 C24        -2.2140   -5.4390    0.1770 c3        1 MOL      0.620599
     74 C25        -2.9750   -6.7320    0.1720 c3        1 MOL     -0.500216
     75 O14        -2.3660   -4.6950   -1.0510 oh        1 MOL     -0.642339
     76 H29        -4.1180   -3.0360    0.7740 hn        1 MOL      0.048925
     77 H30        -2.5420   -4.9710    2.2840 h1        1 MOL      0.065268
     78 H31        -1.1540   -5.6000    0.3550 h1        1 MOL     -0.082162
     79 H32        -2.3140   -3.7570   -0.8410 ho        1 MOL      0.388860
     80 H33        -4.0320   -6.5760   -0.0690 hc        1 MOL      0.123047
     81 H34        -2.5520   -7.4390   -0.5390 hc        1 MOL      0.123047
     82 H35        -2.9930   -7.2040    1.1510 hc        1 MOL      0.123047
     83 N9         -0.4810   -3.6720    2.0130 n         1 MOL     -0.435733
     84 C26         0.7010   -2.9030    2.0220 c3        1 MOL      0.039807
     85 C27         1.5250   -3.1260    0.7500 c         1 MOL      0.588551
     86 O15         1.7710   -4.2830    0.4320 o         1 MOL     -0.604645
     87 C28         1.4710   -3.2630    3.3040 c3        1 MOL     -0.044886
     88 C29         0.7610   -2.5410    4.5190 c3        1 MOL      0.267662
     89 C30         2.9280   -2.8120    3.3640 c3        1 MOL     -0.252249
     90 C31         1.0750   -3.1470    5.9390 c3        1 MOL     -0.055848
     91 H36        -0.5030   -4.5810    2.4530 hn        1 MOL      0.263702
     92 H37         0.4630   -1.8500    2.0890 h1        1 MOL      0.039027
     93 H38         1.4590   -4.3440    3.4760 hc        1 MOL      0.028240
     94 H39        -0.3190   -2.5680    4.3980 hc        1 MOL     -0.076503
     95 H40         0.9740   -1.4760    4.5150 hc        1 MOL     -0.076503
     96 H41         3.2680   -2.5370    4.3680 hc        1 MOL      0.055162
     97 H42         3.6150   -3.6180    3.1170 hc        1 MOL      0.055162
     98 H43         3.0680   -2.0450    2.6000 hc        1 MOL      0.055162
     99 H44         0.4160   -2.6140    6.6390 hc        1 MOL     -0.004432
    100 H45         0.6770   -4.1580    5.9500 hc        1 MOL     -0.004432
    101 H46         2.1140   -3.1140    6.2650 hc        1 MOL     -0.004432
    102 N10         1.7850   -2.0660    0.0370 n         1 MOL     -0.331904
    103 C32         2.6780   -2.0730   -1.1770 c3        1 MOL      0.110406
    104 C33         4.0870   -1.6590   -0.6960 c         1 MOL      0.304765
    105 O16         4.3530   -1.2930    0.4370 o         1 MOL     -0.318832
    106 C34         2.0370   -1.1440   -2.2280 c3        1 MOL     -0.267129
    107 C35         0.5400   -1.2760   -2.5860 c         1 MOL      0.656340
    108 O17        -0.3780   -0.7720   -1.8440 o         1 MOL     -0.640083
    109 O18         0.2180   -1.7540   -3.7000 o         1 MOL     -0.640083
    110 H47         1.4240   -1.1980    0.4100 hn        1 MOL      0.347239
    111 H48         2.7600   -3.0770   -1.6070 h1        1 MOL      0.067821
    112 H49         2.6600   -1.1550   -3.1250 hc        1 MOL      0.058810
    113 H50         2.2050   -0.1220   -1.8750 hc        1 MOL      0.058810
    114 N11         5.0080   -1.7150   -1.6100 n         1 MOL     -0.468519
    115 C36         6.4300   -1.3890   -1.4070 c3        1 MOL      0.270865
    116 C37         6.6810    0.1260   -1.1140 c         1 MOL      0.363764
    117 O19         7.2280    0.4600   -0.0370 o         1 MOL     -0.508891
    118 C38         7.3360   -1.9740   -2.5210 c3        1 MOL     -0.141621
    119 C39         8.7730   -1.8070   -2.2730 ca        1 MOL      0.147596
    120 C40         9.3420   -2.4340   -1.1460 ca        1 MOL     -0.223863
    121 C41         9.6680   -1.1090   -3.1520 ca        1 MOL     -0.223863
    122 C42        10.6720   -2.1170   -0.7780 ca        1 MOL     -0.091337
    123 C43        10.9980   -0.8820   -2.8370 ca        1 MOL     -0.091337
    124 C44        11.4730   -1.3540   -1.6190 ca        1 MOL     -0.084133
    125 H51         4.7680   -2.1020   -2.5080 hn        1 MOL      0.301430
    126 H52         6.7620   -1.9090   -0.5020 h1        1 MOL      0.052539
    127 H53         7.0560   -1.5230   -3.4700 hc        1 MOL      0.038745
    128 H54         7.0510   -3.0190   -2.6420 hc        1 MOL      0.038745
    129 H55         8.7600   -3.0880   -0.5180 ha        1 MOL      0.133863
    130 H56         9.2340   -0.6380   -4.0160 ha        1 MOL      0.133863
    131 H57        11.1000   -2.5430    0.1170 ha        1 MOL      0.109087
    132 H58        11.5610   -0.2300   -3.4880 ha        1 MOL      0.109087
    133 H59        12.5130   -1.2720   -1.3640 ha        1 MOL      0.080273
    134 N12         6.2180    1.1230   -1.9060 n         1 MOL     -0.196885
    135 C45         6.0820    2.5340   -1.4550 c3        1 MOL      0.081059
    136 C46         5.4300    2.8010   -0.0750 c         1 MOL      0.340768
    137 O20         5.7030    3.8090    0.5320 o         1 MOL     -0.510329
    138 C47         5.3340    3.2440   -2.6090 c3        1 MOL     -0.258351
    139 C48         4.5130    2.1410   -3.2550 c3        1 MOL      0.055140
    140 C49         5.4300    0.9950   -3.2230 c3        1 MOL      0.023913
    141 H60         7.1000    2.8990   -1.3610 h1        1 MOL      0.062583
    142 H61         4.7820    4.0770   -2.1680 hc        1 MOL      0.090660
    143 H62         6.0690    3.6800   -3.2760 hc        1 MOL      0.090660
    144 H63         3.6400    1.9220   -2.6410 hc        1 MOL      0.037463
    145 H64         4.1540    2.3680   -4.2640 hc        1 MOL      0.037463
    146 H65         4.8350    0.0780   -3.2380 h1        1 MOL      0.011715
    147 H66         6.1790    0.9910   -4.0050 h1        1 MOL      0.011715
    148 N13         4.5430    1.9550    0.4390 n         1 MOL     -0.020156
    149 C50         3.9430    2.0660    1.7550 c3        1 MOL     -0.030283
    150 C51         4.8400    1.4580    2.8430 c         1 MOL      0.442500
    151 O21         5.1340    2.1090    3.8200 o         1 MOL     -0.552197
    152 C52         2.6080    1.3520    1.7250 c3        1 MOL     -0.288150
    153 C53         1.8060    1.9520    0.5400 c3        1 MOL      0.024457
    154 C54         0.4060    1.4220    0.5170 c         1 MOL      0.637937
    155 O22         0.1900    0.2420    0.8550 o         1 MOL     -0.741789
    156 O23        -0.4150    2.0800   -0.1500 o         1 MOL     -0.741789
    157 H67         4.1910    1.2440   -0.1860 hn        1 MOL      0.145085
    158 H68         3.7960    3.1210    2.0160 h1        1 MOL      0.103757
    159 H69         2.0350    1.5710    2.6360 hc        1 MOL      0.080701
    160 H70         2.8250    0.2870    1.6330 hc        1 MOL      0.080701
    161 H71         2.2940    1.7550   -0.4150 hc        1 MOL      0.034569
    162 H72         1.7450    3.0190    0.7490 hc        1 MOL      0.034569
    163 N14         5.5300    0.3300    2.6330 n         1 MOL     -0.056696
    164 C55         6.5630   -0.3270    3.5150 c3        1 MOL     -0.405895
    165 H73         7.4730    0.2740    3.5170 h1        1 MOL      0.137656
    166 H74         6.1770   -0.4050    4.5320 h1        1 MOL      0.137656
    167 H75         6.7870   -1.3230    3.1330 h1        1 MOL      0.137656
    168 H76         5.3160   -0.2030    1.8050 hn        1 MOL      0.069576
    169 Ca1        -2.2420    0.1700   -0.2530 Ca        1 MOL      1.696581
    170 O24        -4.1560   -0.8840    1.5360 oh        1 MOL     -0.822574
    171 H77        -4.9600   -0.6690    2.0020 ho        1 MOL      0.408086
    172 H78        -3.4620   -0.7410    2.1780 ho        1 MOL      0.408086
    173 O25        -1.8990   -0.0130    2.6960 oh        1 MOL     -0.822574
    174 H79        -0.9850   -0.1390    2.4770 ho        1 MOL      0.408086
    175 H80        -1.8990    0.1880    3.6320 ho        1 MOL      0.408086
@<TRIPOS>BOND
     1    1    2 1   
     2    1    4 1   
     3    1    5 1   
     4    1    6 1   
     5    2    3 2   
     6    2    7 1   
     7    7    8 1   
     8    7   15 1   
     9    8    9 1   
    10    8   11 1   
    11    8   16 1   
    12    9   10 2   
    13    9   19 1   
    14   11   12 1   
    15   11   17 1   
    16   11   18 1   
    17   12   13 1   
    18   12   14 1   
    19   19   20 1   
    20   19   24 1   
    21   20   21 1   
    22   20   23 1   
    23   20   25 1   
    24   21   22 2   
    25   21   29 1   
    26   23   26 1   
    27   23   27 1   
    28   23   28 1   
    29   29   30 1   
    30   29   37 1   
    31   30   31 1   
    32   30   33 1   
    33   30   38 1   
    34   31   32 2   
    35   31   41 1   
    36   33   34 1   
    37   33   39 1   
    38   33   40 1   
    39   34   35 1   
    40   34   36 1   
    41   41   42 1   
    42   41   45 1   
    43   42   43 1   
    44   42   46 1   
    45   42   47 1   
    46   43   44 2   
    47   43   48 1   
    48   48   49 1   
    49   48   56 1   
    50   49   50 1   
    51   49   52 1   
    52   49   57 1   
    53   50   51 2   
    54   50   62 1   
    55   52   53 1   
    56   52   58 1   
    57   52   59 1   
    58   53   54 1   
    59   53   55 2   
    60   54   60 1   
    61   54   61 1   
    62   62   63 1   
    63   62   66 1   
    64   63   64 1   
    65   63   67 1   
    66   63   68 1   
    67   64   65 2   
    68   64   69 1   
    69   69   70 1   
    70   69   76 1   
    71   70   71 1   
    72   70   73 1   
    73   70   77 1   
    74   71   72 2   
    75   71   83 1   
    76   73   74 1   
    77   73   75 1   
    78   73   78 1   
    79   74   80 1   
    80   74   81 1   
    81   74   82 1   
    82   75   79 1   
    83   83   84 1   
    84   83   91 1   
    85   84   85 1   
    86   84   87 1   
    87   84   92 1   
    88   85   86 2   
    89   85  102 1   
    90   87   88 1   
    91   87   89 1   
    92   87   93 1   
    93   88   90 1   
    94   88   94 1   
    95   88   95 1   
    96   89   96 1   
    97   89   97 1   
    98   89   98 1   
    99   90   99 1   
   100   90  100 1   
   101   90  101 1   
   102  102  103 1   
   103  102  110 1   
   104  103  104 1   
   105  103  106 1   
   106  103  111 1   
   107  104  105 2   
   108  104  114 1   
   109  106  107 1   
   110  106  112 1   
   111  106  113 1   
   112  107  108 1   
   113  107  109 1   
   114  114  115 1   
   115  114  125 1   
   116  115  116 1   
   117  115  118 1   
   118  115  126 1   
   119  116  117 2   
   120  116  134 1   
   121  118  119 1   
   122  118  127 1   
   123  118  128 1   
   124  119  120 ar  
   125  119  121 ar  
   126  120  122 ar  
   127  120  129 1   
   128  121  123 ar  
   129  121  130 1   
   130  122  124 ar  
   131  122  131 1   
   132  123  124 ar  
   133  123  132 1   
   134  124  133 1   
   135  134  135 1   
   136  134  140 1   
   137  135  136 1   
   138  135  138 1   
   139  135  141 1   
   140  136  137 2   
   141  136  148 1   
   142  138  139 1   
   143  138  142 1   
   144  138  143 1   
   145  139  140 1   
   146  139  144 1   
   147  139  145 1   
   148  140  146 1   
   149  140  147 1   
   150  148  149 1   
   151  148  157 1   
   152  149  150 1   
   153  149  152 1   
   154  149  158 1   
   155  150  151 2   
   156  150  163 1   
   157  152  153 1   
   158  152  159 1   
   159  152  160 1   
   160  153  154 1   
   161  153  161 1   
   162  153  162 1   
   163  154  155 1   
   164  154  156 1   
   165  163  164 1   
   166  163  168 1   
   167  164  165 1   
   168  164  166 1   
   169  164  167 1   
   170  170  171 1   
   171  170  172 1   
   172  173  174 1   
   173  173  175 1   
@<TRIPOS>SUBSTRUCTURE
     1 MOL         1 TEMP              0 ****  ****    0 ROOT
