@<TRIPOS>MOLECULE
MOL
  179   176     1     0     0
SMALL
resp


@<TRIPOS>ATOM
      1 C1         -0.7620   -4.4460    6.3420 c3        1 MOL     -0.371566
      2 C2         -0.9840   -3.7700    5.0370 c         1 MOL      0.684752
      3 O1         -2.0760   -3.8140    4.3560 o         1 MOL     -0.579698
      4 H1         -1.4700   -4.0600    7.0750 hc        1 MOL      0.104123
      5 H2         -0.9080   -5.5190    6.2250 hc        1 MOL      0.104123
      6 H3          0.2550   -4.2520    6.6840 hc        1 MOL      0.104123
      7 N1          0.0910   -3.2430    4.4650 n         1 MOL     -0.530403
      8 C3          0.2150   -2.6830    3.0930 c3        1 MOL     -0.038809
      9 C4          0.1790   -3.7930    2.0320 c         1 MOL      0.613333
     10 O2          0.9480   -4.7630    2.1830 o         1 MOL     -0.530299
     11 C5          1.4990   -1.8410    2.9990 c3        1 MOL     -0.114894
     12 C6          1.5920   -1.1180    1.6690 c         1 MOL      0.859910
     13 O3          0.5220   -0.6670    1.2140 o         1 MOL     -0.848010
     14 O4          2.6980   -0.9080    1.1230 o         1 MOL     -0.848010
     15 H4          0.9940   -3.4890    4.8570 hn        1 MOL      0.305225
     16 H5         -0.6280   -2.0110    2.8950 h1        1 MOL      0.030793
     17 H6          2.3160   -2.5610    3.0720 hc        1 MOL      0.052931
     18 H7          1.7030   -1.2090    3.8640 hc        1 MOL      0.052931
     19 N2         -0.4500   -3.5600    0.8570 n         1 MOL     -0.222786
     20 C7         -0.8040   -4.6120   -0.0600 c3        1 MOL     -0.394313
     21 C8          0.4120   -5.3080   -0.8450 c         1 MOL      0.594426
     22 O5          0.4580   -6.4980   -1.0120 o         1 MOL     -0.553424
     23 C9         -1.8220   -4.0760   -1.0790 c3        1 MOL      0.257962
     24 C10        -2.6630   -5.1520   -1.7520 c3        1 MOL     -0.232629
     25 C11        -3.7060   -4.4830   -2.6350 c3        1 MOL     -0.153822
     26 C12        -4.4170   -5.5690   -3.4580 c3        1 MOL      0.040035
     27 N3         -5.5250   -5.0960   -4.2990 n4        1 MOL     -0.291455
     28 H8         -0.7630   -2.5970    0.8380 hn        1 MOL      0.185104
     29 H9         -1.2100   -5.4040    0.5630 h1        1 MOL      0.174001
     30 H10        -1.2550   -3.4430   -1.7640 hc        1 MOL      0.000939
     31 H11        -2.5640   -3.4910   -0.5420 hc        1 MOL      0.000939
     32 H12        -3.1990   -5.7000   -0.9760 hc        1 MOL      0.090633
     33 H13        -1.9690   -5.7600   -2.3370 hc        1 MOL      0.090633
     34 H14        -3.2070   -3.7860   -3.3080 hc        1 MOL      0.118375
     35 H15        -4.4540   -4.1510   -1.9190 hc        1 MOL      0.118375
     36 H16        -4.8340   -6.2690   -2.7250 hx        1 MOL      0.081743
     37 H17        -3.7200   -6.1300   -4.0780 hx        1 MOL      0.081743
     38 H18        -5.1970   -4.4100   -4.9700 hn        1 MOL      0.308311
     39 H19        -5.9260   -5.8220   -4.8810 hn        1 MOL      0.308311
     40 H20        -6.2150   -4.6040   -3.7520 hn        1 MOL      0.308311
     41 N4          1.4660   -4.5030   -1.1870 n         1 MOL     -0.403323
     42 C13         2.7470   -4.9640   -1.6760 c3        1 MOL      0.180943
     43 C14         3.9950   -4.6120   -0.7790 c         1 MOL      0.273737
     44 O6          5.1350   -4.7530   -1.2340 o         1 MOL     -0.489100
     45 C15         2.9670   -4.3680   -3.0120 c3        1 MOL     -0.310171
     46 C16         3.0760   -2.8220   -3.0060 c         1 MOL      0.853625
     47 O7          3.4040   -2.2450   -4.0080 o         1 MOL     -0.718812
     48 O8          2.6030   -2.1670   -2.0750 o         1 MOL     -0.718812
     49 H21         1.3180   -3.5400   -0.9340 hn        1 MOL      0.218921
     50 H22         2.6700   -6.0540   -1.8040 h1        1 MOL      0.094263
     51 H23         2.1410   -4.6000   -3.6810 hc        1 MOL      0.069721
     52 H24         3.9060   -4.7430   -3.4310 hc        1 MOL      0.069721
     53 N5          3.8540   -4.0840    0.4590 n         1 MOL     -0.041369
     54 C17         4.9240   -3.6800    1.3810 c3        1 MOL     -0.331611
     55 C18         5.8740   -2.5450    0.9410 c         1 MOL      0.620621
     56 O9          6.8500   -2.3030    1.6190 o         1 MOL     -0.594584
     57 H25         2.9080   -3.9850    0.7790 hn        1 MOL      0.101782
     58 H26         5.5310   -4.5880    1.3740 h1        1 MOL      0.138897
     59 H27         4.4750   -3.5330    2.3700 h1        1 MOL      0.138897
     60 N6          5.6250   -1.8810   -0.1710 n         1 MOL     -0.240054
     61 C19         6.4860   -0.9340   -0.8310 c3        1 MOL     -0.038245
     62 C20         6.8230    0.3900   -0.0860 c         1 MOL      0.392701
     63 O10         7.5900    1.2090   -0.6110 o         1 MOL     -0.537987
     64 C21         5.9560   -0.6310   -2.2050 c3        1 MOL     -0.305726
     65 C22         4.8630    0.3600   -2.2690 c         1 MOL      0.656123
     66 N7          4.6540    1.0280   -3.3820 n         1 MOL     -0.712507
     67 O11         4.1290    0.6050   -1.3420 o         1 MOL     -0.482550
     68 H28         4.7120   -2.1120   -0.5590 hn        1 MOL      0.181299
     69 H29         7.4700   -1.3980   -0.9180 h1        1 MOL      0.128635
     70 H30         5.6440   -1.5650   -2.6730 hc        1 MOL      0.113721
     71 H31         6.7770   -0.1620   -2.7510 hc        1 MOL      0.113721
     72 H32         5.0880    0.7700   -4.2580 hn        1 MOL      0.328033
     73 H33         3.8860    1.6870   -3.4180 hn        1 MOL      0.328033
     74 N8          6.3120    0.6520    1.0910 n         1 MOL     -0.135578
     75 C23         6.7560    1.7860    2.0000 c3        1 MOL     -0.161043
     76 C24         5.6640    2.8200    2.4040 c         1 MOL      0.558534
     77 O12         5.7250    3.4090    3.5040 o         1 MOL     -0.542123
     78 H34         5.6200    0.0180    1.4550 hn        1 MOL      0.221685
     79 H35         7.4430    2.3490    1.3630 h1        1 MOL      0.102904
     80 H36         7.2170    1.3360    2.8770 h1        1 MOL      0.102904
     81 N9          4.6300    2.9340    1.5340 n         1 MOL     -0.461934
     82 C25         3.3280    3.5520    1.9050 c3        1 MOL      0.246618
     83 C26         2.1190    2.7830    1.4880 c         1 MOL      0.535742
     84 O13         2.1580    2.1240    0.4760 o         1 MOL     -0.582023
     85 C27         3.2520    5.0730    1.4500 c3        1 MOL     -0.250426
     86 C28         3.3410    5.4120   -0.0380 ca        1 MOL      0.219274
     87 C29         2.1460    5.5350   -0.8280 ca        1 MOL     -0.244209
     88 C30         4.5880    5.6130   -0.6430 ca        1 MOL     -0.244209
     89 C31         2.2160    5.8870   -2.1770 ca        1 MOL     -0.188933
     90 C32         4.6410    6.0900   -2.0350 ca        1 MOL     -0.188933
     91 C33         3.4710    6.1790   -2.8020 ca        1 MOL      0.259979
     92 O14         3.5960    6.5750   -4.0950 oh        1 MOL     -0.501181
     93 H37         4.6040    2.4840    0.6390 hn        1 MOL      0.270794
     94 H38         3.2980    3.5800    2.9890 h1        1 MOL      0.029082
     95 H39         4.1490    5.5210    1.8930 hc        1 MOL      0.067066
     96 H40         2.3230    5.5220    1.8000 hc        1 MOL      0.067066
     97 H41         1.2050    5.2940   -0.3790 ha        1 MOL      0.178013
     98 H42         5.5140    5.5170   -0.1070 ha        1 MOL      0.178013
     99 H43         1.2850    5.9410   -2.7170 ha        1 MOL      0.131417
    100 H44         5.6060    6.1460   -2.5240 ha        1 MOL      0.131417
    101 H45         2.8890    6.4420   -4.7350 ho        1 MOL      0.383749
    102 N10         1.0410    2.9430    2.3140 n         1 MOL     -0.604919
    103 C34        -0.3340    2.3850    2.0630 c3        1 MOL      0.247521
    104 C35        -1.3280    3.5210    1.6610 c         1 MOL      0.402381
    105 O15        -1.2690    4.6340    2.1890 o         1 MOL     -0.535057
    106 C36        -0.8540    1.5090    3.2390 c3        1 MOL      0.131510
    107 C37        -2.1510    0.7200    2.8340 c3        1 MOL      0.562644
    108 C38        -1.0940    2.1980    4.5690 c3        1 MOL     -0.297197
    109 C39        -2.6890   -0.3490    3.8410 c3        1 MOL     -0.182557
    110 H46         1.1890    3.5310    3.1220 hn        1 MOL      0.324293
    111 H47        -0.2140    1.7430    1.1900 h1        1 MOL      0.002001
    112 H48        -0.0310    0.8380    3.4670 hc        1 MOL      0.014128
    113 H49        -1.8490    0.1510    1.9530 hc        1 MOL     -0.173183
    114 H50        -2.9780    1.4340    2.7210 hc        1 MOL     -0.173183
    115 H51        -0.2210    2.8100    4.7830 hc        1 MOL      0.051189
    116 H52        -2.0230    2.7750    4.6130 hc        1 MOL      0.051189
    117 H53        -1.1800    1.4340    5.3510 hc        1 MOL      0.051189
    118 H54        -3.2850    0.1410    4.6190 hc        1 MOL      0.013375
    119 H55        -3.3250   -1.0400    3.2940 hc        1 MOL      0.013375
    120 H56        -1.8840   -0.9390    4.2710 hc        1 MOL      0.013375
    121 N11        -2.3380    3.2050    0.8100 n         1 MOL     -0.153874
    122 C40        -3.3850    4.1240    0.4320 c3        1 MOL     -0.057926
    123 C41        -4.7780    3.5140    0.6310 c         1 MOL      0.369768
    124 O16        -4.8180    2.3580    1.1240 o         1 MOL     -0.360075
    125 C42        -3.2050    4.4640   -1.0660 c3        1 MOL      0.295458
    126 O17        -2.5110    5.7350   -1.2800 oh        1 MOL     -0.641304
    127 H57        -2.3260    2.2710    0.4330 hn        1 MOL      0.028018
    128 H58        -3.2800    5.0370    1.0230 h1        1 MOL      0.093418
    129 H59        -4.1290    4.5350   -1.6380 h1        1 MOL      0.002948
    130 H60        -2.6890    3.5980   -1.4900 h1        1 MOL      0.002948
    131 H61        -2.8760    6.3770   -0.6690 ho        1 MOL      0.390742
    132 N12        -5.8510    4.1580    0.2640 n         1 MOL     -0.432863
    133 C43        -7.1880    3.6540    0.3600 c3        1 MOL      0.274489
    134 C44        -7.3810    2.2390   -0.2640 c         1 MOL      0.387861
    135 O18        -7.8110    1.3250    0.4730 o         1 MOL     -0.481881
    136 C45        -8.1080    4.7640    0.0010 c3        1 MOL     -0.185031
    137 H62        -5.6460    5.0470   -0.1690 hn        1 MOL      0.279438
    138 H63        -7.3750    3.4870    1.4150 h1        1 MOL      0.050982
    139 H64        -7.6640    5.6830    0.3600 hc        1 MOL      0.047156
    140 H65        -8.0470    4.8100   -1.0910 hc        1 MOL      0.047156
    141 H66        -9.1270    4.5710    0.3340 hc        1 MOL      0.047156
    142 N13        -7.0000    1.9610   -1.5310 n         1 MOL     -0.382015
    143 C46        -7.4090    0.7330   -2.2370 c3        1 MOL      0.119198
    144 C47        -6.6820   -0.4230   -1.6210 c         1 MOL      0.320164
    145 O19        -7.0720   -1.5730   -1.6620 o         1 MOL     -0.525509
    146 C48        -7.1560    0.8050   -3.7540 c3        1 MOL     -0.362213
    147 H67        -6.6270    2.7050   -2.0980 hn        1 MOL      0.264401
    148 H68        -8.4570    0.6000   -1.9710 h1        1 MOL      0.107765
    149 H69        -7.3800    1.8400   -4.0430 hc        1 MOL      0.108952
    150 H70        -6.0970    0.7000   -3.9930 hc        1 MOL      0.108952
    151 H71        -7.7780    0.0860   -4.2970 hc        1 MOL      0.108952
    152 N14        -5.4880   -0.2350   -1.0270 n         1 MOL     -0.023173
    153 C49        -4.6900   -1.2280   -0.4000 c3        1 MOL     -0.030077
    154 C50        -5.2590   -1.4440    1.0130 c         1 MOL      0.547653
    155 O20        -5.3340   -2.5640    1.5020 o         1 MOL     -0.561105
    156 C51        -3.2700   -0.7340   -0.4040 c3        1 MOL     -0.047785
    157 C52        -2.8620   -0.3580   -1.8350 c3        1 MOL      0.132909
    158 C53        -1.3670   -0.1400   -1.7570 c         1 MOL      0.747354
    159 O21        -0.5840   -1.0810   -1.8100 o         1 MOL     -0.777540
    160 O22        -0.9820    1.0020   -1.4240 o         1 MOL     -0.777540
    161 H72        -5.1010    0.6990   -1.0120 hn        1 MOL      0.087318
    162 H73        -4.8110   -2.1670   -0.9370 h1        1 MOL     -0.049102
    163 H74        -2.5970   -1.3860    0.1540 hc        1 MOL      0.127378
    164 H75        -3.2510    0.2120    0.1330 hc        1 MOL      0.127378
    165 H76        -3.3700    0.5140   -2.2470 hc        1 MOL     -0.102116
    166 H77        -3.0840   -1.2270   -2.4410 hc        1 MOL     -0.102116
    167 N15        -5.7170   -0.3860    1.6370 n         1 MOL     -0.046280
    168 C54        -6.4880   -0.5330    2.9000 c3        1 MOL     -0.336393
    169 H78        -6.1820    0.2400    3.6040 h1        1 MOL      0.121286
    170 H79        -7.5530   -0.4310    2.6900 h1        1 MOL      0.121286
    171 H80        -6.2940   -1.5140    3.3330 h1        1 MOL      0.121286
    172 H81        -5.6790    0.5670    1.3270 hn        1 MOL      0.050931
    173 Ca1         1.5880    0.1580   -1.1030 Ca        1 MOL      1.777498
    174 O23         1.7330   -0.0780   -3.8740 oh        1 MOL     -0.816789
    175 H82         1.7050    0.2100   -4.7820 ho        1 MOL      0.378762
    176 H83         2.3950   -0.7740   -3.8640 ho        1 MOL      0.378762
    177 O24         2.2710    2.6310   -2.2390 oh        1 MOL     -0.816789
    178 H84         2.7620    3.4380   -2.3800 ho        1 MOL      0.378762
    179 H85         1.3840    2.8420   -2.5160 ho        1 MOL      0.378762
@<TRIPOS>BOND
     1    1    2 1   
     2    1    4 1   
     3    1    5 1   
     4    1    6 1   
     5    2    3 2   
     6    2    7 1   
     7    7    8 1   
     8    7   15 1   
     9    8    9 1   
    10    8   11 1   
    11    8   16 1   
    12    9   10 2   
    13    9   19 1   
    14   11   12 1   
    15   11   17 1   
    16   11   18 1   
    17   12   13 1   
    18   12   14 1   
    19   19   20 1   
    20   19   28 1   
    21   20   21 1   
    22   20   23 1   
    23   20   29 1   
    24   21   22 2   
    25   21   41 1   
    26   23   24 1   
    27   23   30 1   
    28   23   31 1   
    29   24   25 1   
    30   24   32 1   
    31   24   33 1   
    32   25   26 1   
    33   25   34 1   
    34   25   35 1   
    35   26   27 1   
    36   26   36 1   
    37   26   37 1   
    38   27   38 1   
    39   27   39 1   
    40   27   40 1   
    41   41   42 1   
    42   41   49 1   
    43   42   43 1   
    44   42   45 1   
    45   42   50 1   
    46   43   44 2   
    47   43   53 1   
    48   45   46 1   
    49   45   51 1   
    50   45   52 1   
    51   46   47 1   
    52   46   48 1   
    53   53   54 1   
    54   53   57 1   
    55   54   55 1   
    56   54   58 1   
    57   54   59 1   
    58   55   56 2   
    59   55   60 1   
    60   60   61 1   
    61   60   68 1   
    62   61   62 1   
    63   61   64 1   
    64   61   69 1   
    65   62   63 2   
    66   62   74 1   
    67   64   65 1   
    68   64   70 1   
    69   64   71 1   
    70   65   66 1   
    71   65   67 2   
    72   66   72 1   
    73   66   73 1   
    74   74   75 1   
    75   74   78 1   
    76   75   76 1   
    77   75   79 1   
    78   75   80 1   
    79   76   77 2   
    80   76   81 1   
    81   81   82 1   
    82   81   93 1   
    83   82   83 1   
    84   82   85 1   
    85   82   94 1   
    86   83   84 2   
    87   83  102 1   
    88   85   86 1   
    89   85   95 1   
    90   85   96 1   
    91   86   87 ar  
    92   86   88 ar  
    93   87   89 ar  
    94   87   97 1   
    95   88   90 ar  
    96   88   98 1   
    97   89   91 ar  
    98   89   99 1   
    99   90   91 ar  
   100   90  100 1   
   101   91   92 1   
   102   92  101 1   
   103  102  103 1   
   104  102  110 1   
   105  103  104 1   
   106  103  106 1   
   107  103  111 1   
   108  104  105 2   
   109  104  121 1   
   110  106  107 1   
   111  106  108 1   
   112  106  112 1   
   113  107  109 1   
   114  107  113 1   
   115  107  114 1   
   116  108  115 1   
   117  108  116 1   
   118  108  117 1   
   119  109  118 1   
   120  109  119 1   
   121  109  120 1   
   122  121  122 1   
   123  121  127 1   
   124  122  123 1   
   125  122  125 1   
   126  122  128 1   
   127  123  124 2   
   128  123  132 1   
   129  125  126 1   
   130  125  129 1   
   131  125  130 1   
   132  126  131 1   
   133  132  133 1   
   134  132  137 1   
   135  133  134 1   
   136  133  136 1   
   137  133  138 1   
   138  134  135 2   
   139  134  142 1   
   140  136  139 1   
   141  136  140 1   
   142  136  141 1   
   143  142  143 1   
   144  142  147 1   
   145  143  144 1   
   146  143  146 1   
   147  143  148 1   
   148  144  145 2   
   149  144  152 1   
   150  146  149 1   
   151  146  150 1   
   152  146  151 1   
   153  152  153 1   
   154  152  161 1   
   155  153  154 1   
   156  153  156 1   
   157  153  162 1   
   158  154  155 2   
   159  154  167 1   
   160  156  157 1   
   161  156  163 1   
   162  156  164 1   
   163  157  158 1   
   164  157  165 1   
   165  157  166 1   
   166  158  159 1   
   167  158  160 1   
   168  167  168 1   
   169  167  172 1   
   170  168  169 1   
   171  168  170 1   
   172  168  171 1   
   173  174  175 1   
   174  174  176 1   
   175  177  178 1   
   176  177  179 1   
@<TRIPOS>SUBSTRUCTURE
     1 MOL         1 TEMP              0 ****  ****    0 ROOT
