@<TRIPOS>MOLECULE
MOL
  178   175     1     0     0
SMALL
resp


@<TRIPOS>ATOM
      1 C1          0.1280   -3.0620    5.5250 c3        1 MOL     -0.352103
      2 C2          0.6630   -2.8290    4.0940 c         1 MOL      0.828021
      3 O1          0.0340   -3.4390    3.2570 o         1 MOL     -0.622012
      4 H1         -0.9330   -3.3080    5.4800 hc        1 MOL      0.079864
      5 H2          0.6720   -3.8850    5.9880 hc        1 MOL      0.079864
      6 H3          0.2640   -2.1560    6.1160 hc        1 MOL      0.079864
      7 N1          1.5580   -1.8870    3.8280 n         1 MOL     -0.812058
      8 C3          2.0870   -1.6720    2.4830 c3        1 MOL      0.318777
      9 C4          2.8440   -2.9830    1.9490 c         1 MOL      0.466285
     10 O2          3.9200   -3.2840    2.4630 o         1 MOL     -0.518554
     11 C5          2.9770   -0.3950    2.5060 c3        1 MOL     -0.318374
     12 C6          3.5380   -0.1480    1.1400 c         1 MOL      0.066678
     13 O3          2.9970   -0.7210    0.1450 o         1 MOL     -0.155625
     14 O4          4.3830    0.7160    0.9400 o         1 MOL     -0.155625
     15 H4          1.9970   -1.5030    4.6580 hn        1 MOL      0.356580
     16 H5          1.2570   -1.4610    1.8190 h1        1 MOL      0.083551
     17 H6          3.7080   -0.7440    3.2380 hc        1 MOL      0.102856
     18 H7          2.3340    0.4430    2.7760 hc        1 MOL      0.102856
     19 N2          2.2950   -3.7220    0.9430 n         1 MOL     -0.348159
     20 C7          2.8570   -4.9880    0.4860 c3        1 MOL      0.099256
     21 C8          4.1540   -4.8600   -0.4050 c         1 MOL      0.402052
     22 O5          5.0980   -5.6810   -0.3160 o         1 MOL     -0.564392
     23 C9          1.7800   -5.8270   -0.3000 c3        1 MOL     -0.276071
     24 H8          1.3590   -3.5040    0.6250 hn        1 MOL      0.282385
     25 H9          3.2020   -5.5460    1.3550 h1        1 MOL      0.063589
     26 H10         1.3570   -5.2760   -1.1460 hc        1 MOL      0.080586
     27 H11         2.2680   -6.7400   -0.6220 hc        1 MOL      0.080586
     28 H12         0.9900   -6.2660    0.3160 hc        1 MOL      0.080586
     29 N3          4.3030   -3.7490   -1.1300 n         1 MOL     -0.180568
     30 C10         5.4710   -3.3600   -1.9350 c3        1 MOL     -0.025457
     31 C11         6.4450   -2.5400   -1.1360 c         1 MOL      0.335497
     32 O6          7.5850   -2.5150   -1.5380 o         1 MOL     -0.508452
     33 C12         4.9470   -2.7230   -3.2510 c3        1 MOL     -0.230607
     34 C13         4.0320   -1.6390   -2.9300 c         1 MOL      0.819253
     35 O7          2.7980   -1.8620   -2.8460 o         1 MOL     -0.754967
     36 O8          4.4730   -0.4700   -2.6940 o         1 MOL     -0.754967
     37 H13         3.5350   -3.0920   -1.0890 hn        1 MOL      0.140992
     38 H14         6.0280   -4.2070   -2.3220 h1        1 MOL      0.118111
     39 H15         4.3770   -3.3250   -3.9510 hc        1 MOL      0.064643
     40 H16         5.8210   -2.3270   -3.7730 hc        1 MOL      0.064643
     41 N4          6.0680   -1.9860    0.0250 n         1 MOL      0.331205
     42 C14         6.9720   -1.6180    1.0840 c3        1 MOL     -0.378013
     43 C15         7.7130   -0.3470    0.7740 c         1 MOL      0.522357
     44 O9          8.8810   -0.1520    1.0590 o         1 MOL     -0.569456
     45 H17         5.0810   -1.9870    0.2460 hn        1 MOL     -0.211056
     46 H18         7.7740   -2.3630    1.1240 h1        1 MOL      0.131522
     47 H19         6.4520   -1.4560    2.0270 h1        1 MOL      0.131522
     48 N5          6.9800    0.5640    0.1210 n         1 MOL     -0.139773
     49 C16         7.3530    1.8620   -0.3480 c3        1 MOL     -0.114227
     50 C17         6.7720    3.0300    0.4500 c         1 MOL      0.401012
     51 O10         6.8090    4.2140   -0.0100 o         1 MOL     -0.496093
     52 C18         7.1150    2.0460   -1.8480 c3        1 MOL     -0.187109
     53 C19         7.8490    0.9970   -2.6980 c         1 MOL      0.699730
     54 N6          7.2020   -0.0530   -3.1830 n         1 MOL     -0.860715
     55 O11         9.0320    1.1690   -2.8930 o         1 MOL     -0.613127
     56 H20         6.0250    0.3100   -0.0860 hn        1 MOL      0.150315
     57 H21         8.4180    1.9480   -0.1360 h1        1 MOL      0.123266
     58 H22         7.3320    3.0220   -2.2840 hc        1 MOL      0.068613
     59 H23         6.0360    2.0680   -2.0090 hc        1 MOL      0.068613
     60 H24         6.2140   -0.1780   -3.0790 hn        1 MOL      0.366498
     61 H25         7.8340   -0.7100   -3.5960 hn        1 MOL      0.366498
     62 N7          6.1900    2.7440    1.6380 n         1 MOL     -0.233491
     63 C20         5.6990    3.7240    2.5200 c3        1 MOL     -0.153630
     64 C21         4.3610    4.3340    2.1620 c         1 MOL      0.558490
     65 O12         4.0590    5.4250    2.6090 o         1 MOL     -0.590508
     66 H26         5.9050    1.7820    1.7220 hn        1 MOL      0.103880
     67 H27         6.4960    4.4730    2.5860 h1        1 MOL      0.088909
     68 H28         5.5570    3.2700    3.5050 h1        1 MOL      0.088909
     69 N8          3.5350    3.6340    1.3890 n         1 MOL     -0.184192
     70 C22         2.1260    4.0380    1.0980 c3        1 MOL     -0.233224
     71 C23         1.1720    2.8000    1.1850 c         1 MOL      0.518018
     72 O13         1.4210    1.7590    0.5890 o         1 MOL     -0.563195
     73 C24         1.9240    4.7920   -0.1930 c3        1 MOL      0.569146
     74 C25         1.8850    6.3140    0.1070 c3        1 MOL     -0.405355
     75 O14         2.8340    4.5650   -1.2540 oh        1 MOL     -0.605683
     76 H29         3.7970    2.6850    1.1510 hn        1 MOL      0.122070
     77 H30         1.8190    4.7010    1.9000 h1        1 MOL      0.088251
     78 H31         0.9130    4.5850   -0.5590 h1        1 MOL     -0.064820
     79 H32         3.1860    3.6860   -1.0910 ho        1 MOL      0.329020
     80 H33         2.8320    6.5120    0.6260 hc        1 MOL      0.091847
     81 H34         1.9010    6.9490   -0.7730 hc        1 MOL      0.091847
     82 H35         1.0940    6.5690    0.8070 hc        1 MOL      0.091847
     83 N9          0.0350    3.0740    1.7900 n         1 MOL     -0.359458
     84 C26        -1.1630    2.1270    1.6730 c3        1 MOL     -0.040670
     85 C27        -2.0870    2.3940    0.5480 c         1 MOL      0.561593
     86 O15        -2.6080    3.5050    0.4480 o         1 MOL     -0.579963
     87 C28        -1.9230    2.1320    3.0910 c3        1 MOL      0.034899
     88 C29        -0.9360    1.6420    4.1870 c3        1 MOL      0.100160
     89 C30        -3.1690    1.2000    3.1890 c3        1 MOL     -0.105067
     90 C31        -1.4030    2.1140    5.5800 c3        1 MOL     -0.216599
     91 H36        -0.1450    3.9590    2.2310 hn        1 MOL      0.274691
     92 H37        -0.7430    1.1340    1.4880 h1        1 MOL      0.065150
     93 H38        -2.1590    3.1620    3.3460 hc        1 MOL      0.010407
     94 H39         0.0970    1.9510    4.0110 hc        1 MOL      0.000127
     95 H40        -0.9260    0.5500    4.1900 hc        1 MOL      0.000127
     96 H41        -3.8250    1.4840    2.3640 hc        1 MOL      0.015011
     97 H42        -2.9110    0.1620    2.9980 hc        1 MOL      0.015011
     98 H43        -3.6580    1.2550    4.1660 hc        1 MOL      0.015011
     99 H44        -1.1550    3.1670    5.6570 hc        1 MOL      0.041265
    100 H45        -2.4460    1.8860    5.7930 hc        1 MOL      0.041265
    101 H46        -0.8310    1.5370    6.3090 hc        1 MOL      0.041265
    102 N10        -2.3590    1.4660   -0.4220 n         1 MOL     -0.279695
    103 C32        -3.3800    1.5990   -1.4140 c3        1 MOL      0.043554
    104 C33        -4.7310    1.2660   -0.8490 c         1 MOL      0.579535
    105 O16        -4.7080    0.5010    0.1170 o         1 MOL     -0.375236
    106 C34        -3.1450    0.7540   -2.7020 c3        1 MOL     -0.399090
    107 C35        -1.7190    0.9890   -3.3360 c         1 MOL      0.844082
    108 O17        -1.4550    2.0310   -3.9980 o         1 MOL     -0.720109
    109 O18        -0.9440    0.0230   -3.2590 o         1 MOL     -0.720109
    110 H47        -1.8400    0.6060   -0.4740 hn        1 MOL      0.132012
    111 H48        -3.4720    2.6320   -1.7380 h1        1 MOL      0.048303
    112 H49        -3.9350    0.9620   -3.4180 hc        1 MOL      0.107970
    113 H50        -3.1740   -0.2930   -2.4080 hc        1 MOL      0.107970
    114 N11        -5.8440    1.8050   -1.3690 n         1 MOL     -0.779623
    115 C36        -7.1560    1.5250   -0.8010 c3        1 MOL      0.610798
    116 C37        -7.4380    0.0400   -0.6690 c         1 MOL      0.195186
    117 O19        -7.7560   -0.3650    0.4320 o         1 MOL     -0.457209
    118 C38        -8.2850    2.1460   -1.6240 c3        1 MOL     -0.426078
    119 C39        -9.6730    1.9200   -1.0690 ca        1 MOL      0.242167
    120 C40        -9.9860    2.1540    0.2450 ca        1 MOL     -0.219528
    121 C41       -10.6760    1.5080   -1.9640 ca        1 MOL     -0.219528
    122 C42       -11.3160    1.9610    0.7060 ca        1 MOL     -0.080642
    123 C43       -12.0120    1.3870   -1.5400 ca        1 MOL     -0.080642
    124 C44       -12.3090    1.6200   -0.1970 ca        1 MOL     -0.140268
    125 H51        -5.7630    2.4590   -2.1410 hn        1 MOL      0.372534
    126 H52        -7.2150    1.9190    0.2090 h1        1 MOL      0.007927
    127 H53        -8.2310    1.8180   -2.6580 hc        1 MOL      0.098880
    128 H54        -8.0620    3.2190   -1.5810 hc        1 MOL      0.098880
    129 H55        -9.1810    2.4610    0.9000 ha        1 MOL      0.122715
    130 H56       -10.3620    1.3080   -2.9820 ha        1 MOL      0.122715
    131 H57       -11.4690    2.0720    1.7730 ha        1 MOL      0.108138
    132 H58       -12.8200    1.1830   -2.2350 ha        1 MOL      0.108138
    133 H59       -13.3300    1.4920    0.1590 ha        1 MOL      0.103058
    134 N12        -7.1190   -0.9320   -1.6410 n         1 MOL     -0.008570
    135 C45        -7.1210   -2.3810   -1.3740 c3        1 MOL     -0.053857
    136 C46        -6.1290   -2.8790   -0.2980 c         1 MOL      0.369312
    137 O20        -6.4420   -3.9050    0.3150 o         1 MOL     -0.517720
    138 C47        -6.7800   -3.0470   -2.6810 c3        1 MOL      0.049247
    139 C48        -7.0650   -1.9860   -3.7380 c3        1 MOL     -0.019665
    140 C49        -6.9320   -0.6370   -3.0620 c3        1 MOL     -0.072994
    141 H60        -8.0800   -2.6600   -0.9520 h1        1 MOL      0.079753
    142 H61        -5.7360   -3.3340   -2.8040 hc        1 MOL      0.024718
    143 H62        -7.3260   -3.9670   -2.8550 hc        1 MOL      0.024718
    144 H63        -6.4270   -2.1400   -4.6150 hc        1 MOL      0.011744
    145 H64        -8.1060   -2.1810   -4.0020 hc        1 MOL      0.011744
    146 H65        -5.9120   -0.2590   -3.0960 h1        1 MOL      0.040766
    147 H66        -7.5760    0.1390   -3.4750 h1        1 MOL      0.040766
    148 N13        -4.9940   -2.2270    0.0390 n         1 MOL     -0.261738
    149 C50        -4.1690   -2.7610    1.1830 c3        1 MOL     -0.029556
    150 C51        -4.7250   -2.3930    2.5720 c         1 MOL      0.439478
    151 O21        -4.7150   -3.2040    3.5040 o         1 MOL     -0.578701
    152 C52        -2.7490   -2.2600    1.0970 c3        1 MOL     -0.039243
    153 C53        -1.9980   -2.6220   -0.1910 c3        1 MOL      0.048773
    154 C54        -0.6780   -1.9210   -0.4170 c         1 MOL      0.601283
    155 O22        -0.5580   -0.7210   -0.0550 o         1 MOL     -0.730898
    156 O23         0.3580   -2.4340   -0.8810 o         1 MOL     -0.730898
    157 H67        -4.8540   -1.2880   -0.2860 hn        1 MOL      0.166321
    158 H68        -4.1070   -3.8460    1.0820 h1        1 MOL      0.094005
    159 H69        -2.1480   -2.5460    1.9590 hc        1 MOL      0.067875
    160 H70        -2.8460   -1.1790    1.0760 hc        1 MOL      0.067875
    161 H71        -2.5820   -2.3420   -1.0660 hc        1 MOL     -0.012025
    162 H72        -1.8200   -3.6940   -0.2390 hc        1 MOL     -0.012025
    163 N14        -5.3360   -1.2670    2.6770 n         1 MOL      0.063669
    164 C55        -6.2910   -0.9120    3.7780 c3        1 MOL     -0.235750
    165 H73        -7.2610   -1.3670    3.5780 h1        1 MOL      0.089506
    166 H74        -5.9060   -1.2830    4.7270 h1        1 MOL      0.089506
    167 H75        -6.4020    0.1710    3.8280 h1        1 MOL      0.089506
    168 H76        -5.3440   -0.6340    1.8920 hn        1 MOL      0.033613
    169 Ca1         1.3390   -0.1450   -1.7050 Ca        1 MOL      1.729274
    170 O24         0.8060    2.3450   -2.4610 oh        1 MOL     -0.799807
    171 H77         1.4260    2.9470   -2.8660 ho        1 MOL      0.379912
    172 H78         0.0200    2.4270   -3.0080 ho        1 MOL      0.379912
    173 O25         3.6370    1.7210   -1.4230 oh        1 MOL     -0.799807
    174 H79         4.0040    1.0910   -2.0550 ho        1 MOL      0.379912
    175 H80         3.9760    1.4250   -0.5780 ho        1 MOL      0.379912
    176 O26         1.9490    0.5790   -4.4400 oh        1 MOL     -0.799807
    177 H81         2.6510    1.1340   -4.7590 ho        1 MOL      0.379912
    178 H82         1.1910    0.8190   -4.9670 ho        1 MOL      0.379912
@<TRIPOS>BOND
     1    1    2 1   
     2    1    4 1   
     3    1    5 1   
     4    1    6 1   
     5    2    3 2   
     6    2    7 1   
     7    7    8 1   
     8    7   15 1   
     9    8    9 1   
    10    8   11 1   
    11    8   16 1   
    12    9   10 2   
    13    9   19 1   
    14   11   12 1   
    15   11   17 1   
    16   11   18 1   
    17   12   13 1   
    18   12   14 1   
    19   19   20 1   
    20   19   24 1   
    21   20   21 1   
    22   20   23 1   
    23   20   25 1   
    24   21   22 2   
    25   21   29 1   
    26   23   26 1   
    27   23   27 1   
    28   23   28 1   
    29   29   30 1   
    30   29   37 1   
    31   30   31 1   
    32   30   33 1   
    33   30   38 1   
    34   31   32 2   
    35   31   41 1   
    36   33   34 1   
    37   33   39 1   
    38   33   40 1   
    39   34   35 1   
    40   34   36 1   
    41   41   42 1   
    42   41   45 1   
    43   42   43 1   
    44   42   46 1   
    45   42   47 1   
    46   43   44 2   
    47   43   48 1   
    48   48   49 1   
    49   48   56 1   
    50   49   50 1   
    51   49   52 1   
    52   49   57 1   
    53   50   51 2   
    54   50   62 1   
    55   52   53 1   
    56   52   58 1   
    57   52   59 1   
    58   53   54 1   
    59   53   55 2   
    60   54   60 1   
    61   54   61 1   
    62   62   63 1   
    63   62   66 1   
    64   63   64 1   
    65   63   67 1   
    66   63   68 1   
    67   64   65 2   
    68   64   69 1   
    69   69   70 1   
    70   69   76 1   
    71   70   71 1   
    72   70   73 1   
    73   70   77 1   
    74   71   72 2   
    75   71   83 1   
    76   73   74 1   
    77   73   75 1   
    78   73   78 1   
    79   74   80 1   
    80   74   81 1   
    81   74   82 1   
    82   75   79 1   
    83   83   84 1   
    84   83   91 1   
    85   84   85 1   
    86   84   87 1   
    87   84   92 1   
    88   85   86 2   
    89   85  102 1   
    90   87   88 1   
    91   87   89 1   
    92   87   93 1   
    93   88   90 1   
    94   88   94 1   
    95   88   95 1   
    96   89   96 1   
    97   89   97 1   
    98   89   98 1   
    99   90   99 1   
   100   90  100 1   
   101   90  101 1   
   102  102  103 1   
   103  102  110 1   
   104  103  104 1   
   105  103  106 1   
   106  103  111 1   
   107  104  105 2   
   108  104  114 1   
   109  106  107 1   
   110  106  112 1   
   111  106  113 1   
   112  107  108 1   
   113  107  109 1   
   114  114  115 1   
   115  114  125 1   
   116  115  116 1   
   117  115  118 1   
   118  115  126 1   
   119  116  117 2   
   120  116  134 1   
   121  118  119 1   
   122  118  127 1   
   123  118  128 1   
   124  119  120 ar  
   125  119  121 ar  
   126  120  122 ar  
   127  120  129 1   
   128  121  123 ar  
   129  121  130 1   
   130  122  124 ar  
   131  122  131 1   
   132  123  124 ar  
   133  123  132 1   
   134  124  133 1   
   135  134  135 1   
   136  134  140 1   
   137  135  136 1   
   138  135  138 1   
   139  135  141 1   
   140  136  137 2   
   141  136  148 1   
   142  138  139 1   
   143  138  142 1   
   144  138  143 1   
   145  139  140 1   
   146  139  144 1   
   147  139  145 1   
   148  140  146 1   
   149  140  147 1   
   150  148  149 1   
   151  148  157 1   
   152  149  150 1   
   153  149  152 1   
   154  149  158 1   
   155  150  151 2   
   156  150  163 1   
   157  152  153 1   
   158  152  159 1   
   159  152  160 1   
   160  153  154 1   
   161  153  161 1   
   162  153  162 1   
   163  154  155 1   
   164  154  156 1   
   165  163  164 1   
   166  163  168 1   
   167  164  165 1   
   168  164  166 1   
   169  164  167 1   
   170  170  171 1   
   171  170  172 1   
   172  173  174 1   
   173  173  175 1   
   174  176  177 1   
   175  176  178 1   
@<TRIPOS>SUBSTRUCTURE
     1 MOL         1 TEMP              0 ****  ****    0 ROOT
