@<TRIPOS>MOLECULE
MOL
  189   185     1     0     0
SMALL
resp


@<TRIPOS>ATOM
      1 C1         -0.0340    1.4790    6.3810 c3        1 MOL     -0.277326
      2 C2         -0.4980    1.3410    4.9170 c         1 MOL      0.752296
      3 O1          0.1520    1.8060    4.0000 o         1 MOL     -0.652723
      4 H1         -0.6340    2.2410    6.8810 hc        1 MOL      0.075122
      5 H2         -0.1580    0.5260    6.8950 hc        1 MOL      0.075122
      6 H3          1.0160    1.7710    6.4050 hc        1 MOL      0.075122
      7 N1         -1.7190    0.7940    4.6430 n         1 MOL     -0.654616
      8 C3         -2.3010    0.7760    3.2110 c3        1 MOL      0.143928
      9 C4         -2.8960    2.1630    2.8300 c         1 MOL      0.471757
     10 O2         -3.9960    2.5600    3.2040 o         1 MOL     -0.512415
     11 C5         -3.3730   -0.3260    3.0280 c3        1 MOL     -0.167234
     12 C6         -3.8460   -0.5100    1.5610 c         1 MOL      0.553223
     13 O3         -3.2660    0.1750    0.6250 o         1 MOL     -0.560504
     14 O4         -4.8090   -1.2140    1.3620 o         1 MOL     -0.560504
     15 H4         -2.2500    0.3260    5.3600 hn        1 MOL      0.331246
     16 H5         -1.4570    0.5670    2.5620 h1        1 MOL      0.064473
     17 H6         -4.2040   -0.0350    3.6640 hc        1 MOL      0.056591
     18 H7         -3.0200   -1.2990    3.3420 hc        1 MOL      0.056591
     19 N2         -1.9930    3.0090    2.2620 n         1 MOL     -0.316316
     20 C7         -2.1760    4.4240    1.9970 c3        1 MOL     -0.138363
     21 C8         -3.0920    4.7090    0.7990 c         1 MOL      0.559454
     22 O5         -3.5760    5.8260    0.7010 o         1 MOL     -0.607268
     23 C9         -0.8150    5.0140    1.8930 c3        1 MOL     -0.137985
     24 C10        -0.9290    6.5390    1.8110 c3        1 MOL      0.413452
     25 C11         0.4610    7.2000    1.6830 c3        1 MOL     -0.296772
     26 C12         0.0780    8.6320    1.2470 c3        1 MOL     -0.126869
     27 N3          0.0240    8.7270   -0.2350 n4        1 MOL     -0.318536
     28 H8         -1.0950    2.6030    2.0710 hn        1 MOL      0.413009
     29 H9         -2.6720    4.8120    2.8770 h1        1 MOL      0.117540
     30 H10        -0.3570    4.6490    0.9820 hc        1 MOL      0.030816
     31 H11        -0.1950    4.6590    2.7150 hc        1 MOL      0.030816
     32 H12        -1.5620    6.9370    2.6040 hc        1 MOL     -0.057919
     33 H13        -1.4380    6.7070    0.8630 hc        1 MOL     -0.057919
     34 H14         1.1540    6.7730    0.9500 hc        1 MOL      0.109053
     35 H15         0.9280    7.2760    2.6610 hc        1 MOL      0.109053
     36 H16         0.9100    9.2120    1.6420 hx        1 MOL      0.146361
     37 H17        -0.9010    8.9250    1.6480 hx        1 MOL      0.146361
     38 H18        -0.6040    8.0310   -0.6110 hn        1 MOL      0.315828
     39 H19        -0.2010    9.6360   -0.6270 hn        1 MOL      0.315828
     40 H20         0.9200    8.4610   -0.6000 hn        1 MOL      0.315828
     41 N4         -3.2840    3.7840   -0.1560 n         1 MOL     -0.253749
     42 C13        -4.1690    4.0290   -1.3140 c3        1 MOL      0.022102
     43 C14        -5.3410    3.0430   -1.2910 c         1 MOL      0.407249
     44 O6         -6.3230    3.2340   -2.0360 o         1 MOL     -0.543130
     45 C15        -3.4370    4.0050   -2.5880 c3        1 MOL     -0.208158
     46 C16        -2.7990    2.6460   -2.8850 c         1 MOL      0.822456
     47 O7         -2.1160    2.5470   -3.9170 o         1 MOL     -0.745362
     48 O8         -2.9040    1.6610   -2.1150 o         1 MOL     -0.745362
     49 H21        -2.7840    2.9160   -0.1120 hn        1 MOL      0.120224
     50 H22        -4.6270    5.0060   -1.2230 h1        1 MOL      0.095245
     51 H23        -2.6640    4.7550   -2.6850 hc        1 MOL      0.041396
     52 H24        -4.1120    4.2380   -3.4140 hc        1 MOL      0.041396
     53 N5         -5.4120    2.0720   -0.3700 n         1 MOL      0.024227
     54 C17        -6.4980    1.3950    0.2540 c3        1 MOL     -0.325473
     55 C18        -6.9920    0.2390   -0.6160 c         1 MOL      0.609667
     56 O9         -8.2310    0.1430   -0.7790 o         1 MOL     -0.596342
     57 H25        -4.5890    1.8270    0.1640 hn        1 MOL      0.012727
     58 H26        -7.3030    2.1330    0.2580 h1        1 MOL      0.133456
     59 H27        -6.1550    1.1580    1.2650 h1        1 MOL      0.133456
     60 N6         -6.1160   -0.5240   -1.2410 n         1 MOL     -0.187055
     61 C19        -6.4980   -1.5660   -2.1520 c3        1 MOL     -0.045199
     62 C20        -6.6100   -2.9330   -1.5890 c         1 MOL      0.438762
     63 O10        -6.9560   -3.8300   -2.3670 o         1 MOL     -0.543144
     64 C21        -5.4620   -1.5360   -3.2910 c3        1 MOL     -0.191514
     65 C22        -4.0190   -1.6420   -2.8760 c         1 MOL      0.748663
     66 O11        -3.6780   -2.1570   -1.7590 o         1 MOL     -0.692578
     67 O12        -3.1510   -1.0660   -3.5650 o         1 MOL     -0.692578
     68 H28        -5.1540   -0.5740   -0.9210 hn        1 MOL      0.022039
     69 H29        -7.4650   -1.2800   -2.5720 h1        1 MOL      0.124430
     70 H30        -5.4590   -0.6280   -3.8910 hc        1 MOL      0.065232
     71 H31        -5.6470   -2.3710   -3.9610 hc        1 MOL      0.065232
     72 N7         -6.4310   -3.0380   -0.3160 n         1 MOL     -0.262273
     73 C23        -6.3850   -4.2010    0.5450 c3        1 MOL     -0.107652
     74 C24        -5.0060   -4.7140    0.9220 c         1 MOL      0.491922
     75 O13        -4.9170   -5.6770    1.6730 o         1 MOL     -0.570484
     76 H32        -6.1090   -2.1770    0.1060 hn        1 MOL      0.230764
     77 H33        -6.9480   -5.0370    0.1270 h1        1 MOL      0.096423
     78 H34        -6.8020   -3.9840    1.5230 h1        1 MOL      0.096423
     79 N8         -3.9490   -4.1620    0.3330 n         1 MOL     -0.193407
     80 C25        -2.6060   -4.6000    0.4040 c3        1 MOL     -0.121244
     81 C26        -1.5460   -3.5500    0.6870 c         1 MOL      0.768150
     82 O14        -1.6900   -2.3740    0.4470 o         1 MOL     -0.731153
     83 C27        -2.2160   -5.3600   -0.8140 c3        1 MOL      0.444426
     84 C28        -2.8420   -6.7400   -1.0180 c3        1 MOL     -0.414893
     85 O15        -2.5670   -4.6850   -2.0450 oh        1 MOL     -0.605012
     86 H35        -4.1270   -3.3470   -0.2360 hn        1 MOL      0.198510
     87 H36        -2.5380   -5.2870    1.2440 h1        1 MOL      0.059284
     88 H37        -1.1500   -5.5520   -0.8460 h1        1 MOL     -0.053531
     89 H38        -2.7410   -3.7990   -1.7230 ho        1 MOL      0.366810
     90 H39        -2.5670   -7.3390   -0.1490 hc        1 MOL      0.107582
     91 H40        -3.9110   -6.7940   -1.2020 hc        1 MOL      0.107582
     92 H41        -2.4860   -7.1810   -1.9490 hc        1 MOL      0.107582
     93 N9         -0.3560   -4.0290    1.1050 n         1 MOL     -0.547320
     94 C29         0.8400   -3.2650    1.3700 c3        1 MOL      0.052295
     95 C30         2.0360   -3.7250    0.4610 c         1 MOL      0.492374
     96 O16         2.5630   -4.8270    0.6750 o         1 MOL     -0.520577
     97 C31         1.2460   -3.3290    2.9280 c3        1 MOL     -0.152397
     98 C32         0.0910   -2.8230    3.8410 c3        1 MOL      0.271475
     99 C33         2.6370   -2.6390    3.0770 c3        1 MOL     -0.022624
    100 C34         0.4490   -3.0060    5.3360 c3        1 MOL     -0.277450
    101 H42        -0.3460   -4.9990    1.3940 hn        1 MOL      0.284999
    102 H43         0.6040   -2.2510    1.0630 h1        1 MOL      0.098500
    103 H44         1.3400   -4.3890    3.1490 hc        1 MOL      0.066769
    104 H45        -0.8450   -3.3380    3.6170 hc        1 MOL     -0.041765
    105 H46        -0.0720   -1.7510    3.7340 hc        1 MOL     -0.041765
    106 H47         2.6170   -1.5690    2.8860 hc        1 MOL      0.019028
    107 H48         2.9190   -2.6540    4.1320 hc        1 MOL      0.019028
    108 H49         3.4520   -3.1420    2.5480 hc        1 MOL      0.019028
    109 H50         0.8610   -3.9920    5.5500 hc        1 MOL      0.056015
    110 H51         1.1180   -2.1810    5.5740 hc        1 MOL      0.056015
    111 H52        -0.4630   -2.8320    5.9080 hc        1 MOL      0.056015
    112 N10         2.5300   -2.8650   -0.4720 n         1 MOL     -0.372073
    113 C35         3.7950   -2.8760   -1.3720 c3        1 MOL     -0.020191
    114 C36         5.0910   -2.6730   -0.6570 c         1 MOL      0.432381
    115 O17         5.0560   -2.4240    0.5430 o         1 MOL     -0.330917
    116 C37         3.6910   -1.6560   -2.2830 c3        1 MOL      0.002015
    117 C38         2.4740   -1.8050   -3.1850 c3        1 MOL     -0.237735
    118 O18         3.6650   -0.4380   -1.5760 oh        1 MOL     -0.406760
    119 H53         1.9130   -2.1360   -0.7950 hn        1 MOL      0.294814
    120 H54         3.9440   -3.7290   -2.0310 h1        1 MOL      0.095195
    121 H55         4.5780   -1.6000   -2.9120 h1        1 MOL      0.080722
    122 H56         2.7590   -0.1460   -1.4060 ho        1 MOL      0.390286
    123 H57         1.5890   -1.6560   -2.5680 hc        1 MOL      0.082306
    124 H58         2.4500   -0.9990   -3.9170 hc        1 MOL      0.082306
    125 H59         2.5540   -2.7440   -3.7370 hc        1 MOL      0.082306
    126 N11         6.2400   -2.8050   -1.2450 n         1 MOL     -0.381714
    127 C39         7.5140   -2.3140   -0.5880 c3        1 MOL     -0.287601
    128 C40         7.5040   -0.8130   -0.3480 c         1 MOL      0.531601
    129 O19         7.7760   -0.3700    0.7680 o         1 MOL     -0.487176
    130 C41         8.7270   -2.8270   -1.3490 c3        1 MOL      0.382849
    131 C42         8.9600   -4.3710   -1.4040 c3        1 MOL     -0.411390
    132 O20         8.7190   -2.2780   -2.6630 oh        1 MOL     -0.611964
    133 H60         6.3830   -3.1550   -2.1820 hn        1 MOL      0.311963
    134 H61         7.5590   -2.8580    0.3580 h1        1 MOL      0.183690
    135 H62         9.6030   -2.3620   -0.8900 h1        1 MOL      0.019168
    136 H63         9.6050   -1.9240   -2.8290 ho        1 MOL      0.390976
    137 H64         8.0510   -4.6710   -1.9160 hc        1 MOL      0.119858
    138 H65         9.6610   -4.6930   -2.1800 hc        1 MOL      0.119858
    139 H66         9.1780   -4.8680   -0.4690 hc        1 MOL      0.119858
    140 N12         6.8700    0.0080   -1.2660 n         1 MOL     -0.372224
    141 C43         6.7290    1.4450   -1.1630 c3        1 MOL     -0.013728
    142 C44         5.8910    1.9410    0.0500 c         1 MOL      0.450300
    143 O21         6.1220    2.9360    0.6020 o         1 MOL     -0.530142
    144 C45         6.1420    1.9050   -2.4660 c3        1 MOL     -0.050639
    145 C46         5.7530    3.3610   -2.6650 c3        1 MOL     -0.005293
    146 C47         4.6800    3.4630   -3.7600 c3        1 MOL      0.036614
    147 C48         4.3760    4.9420   -3.8920 c3        1 MOL      0.082550
    148 N13         3.3270    5.1780   -4.9110 n4        1 MOL     -0.398678
    149 H67         6.5910   -0.3610   -2.1640 hn        1 MOL      0.230949
    150 H68         7.7330    1.8440   -1.0480 h1        1 MOL      0.093175
    151 H69         5.2350    1.3170   -2.6260 hc        1 MOL      0.032257
    152 H70         6.8460    1.5570   -3.2210 hc        1 MOL      0.032257
    153 H71         6.6610    3.9220   -2.8730 hc        1 MOL      0.022964
    154 H72         5.3200    3.7840   -1.7610 hc        1 MOL      0.022964
    155 H73         3.8010    2.8850   -3.4440 hc        1 MOL      0.013969
    156 H74         5.1060    2.9940   -4.6440 hc        1 MOL      0.013969
    157 H75         5.3240    5.4410   -4.0760 hx        1 MOL      0.061587
    158 H76         4.0520    5.3490   -2.9360 hx        1 MOL      0.061587
    159 H77         3.1790    6.1580   -5.0980 hn        1 MOL      0.336833
    160 H78         3.4910    4.6580   -5.7680 hn        1 MOL      0.336833
    161 H79         2.4130    4.9760   -4.5290 hn        1 MOL      0.336833
    162 N14         4.9060    1.1160    0.5020 n         1 MOL     -0.005896
    163 C49         4.2710    1.3020    1.7970 c3        1 MOL     -0.093871
    164 C50         4.8640    0.5200    2.9770 c         1 MOL      0.465402
    165 O22         4.7760    0.8760    4.1630 o         1 MOL     -0.567269
    166 C51         2.8350    0.7930    1.5260 c3        1 MOL      0.056074
    167 C52         2.0400    1.6810    0.4740 c3        1 MOL     -0.162024
    168 C53         0.8520    0.9400   -0.0010 c         1 MOL      0.731504
    169 O23         1.0940   -0.1790   -0.5520 o         1 MOL     -0.795557
    170 O24        -0.3180    1.3540    0.1870 o         1 MOL     -0.795557
    171 H80         4.5010    0.3700   -0.0400 hn        1 MOL     -0.075043
    172 H81         4.1960    2.3510    2.0730 h1        1 MOL      0.072579
    173 H82         2.2660    0.8290    2.4500 hc        1 MOL      0.073867
    174 H83         2.8970   -0.2600    1.2560 hc        1 MOL      0.073867
    175 H84         2.5620    1.9340   -0.4470 hc        1 MOL      0.006989
    176 H85         1.7130    2.6050    0.9470 hc        1 MOL      0.006989
    177 N15         5.5370   -0.6260    2.7340 n         1 MOL     -0.113242
    178 C54         6.0330   -1.5150    3.8600 c3        1 MOL     -0.215493
    179 H86         5.6760   -1.1260    4.8130 h1        1 MOL      0.092749
    180 H87         5.6570   -2.5280    3.7180 h1        1 MOL      0.092749
    181 H88         7.1230   -1.5290    3.8600 h1        1 MOL      0.092749
    182 H89         5.6320   -0.9550    1.7800 hn        1 MOL      0.117840
    183 Ca1        -1.7200   -0.4260   -1.2820 Ca        1 MOL      1.812801
    184 O25        -0.7340   -2.5580   -2.7350 oh        1 MOL     -0.875562
    185 H90        -0.8220   -2.3150   -3.6550 ho        1 MOL      0.402997
    186 H91        -0.8370   -3.5080   -2.7320 ho        1 MOL      0.402997
    187 O26        -0.4450    0.4170   -3.7500 oh        1 MOL     -0.875562
    188 H92        -1.1980    0.9630   -3.9750 ho        1 MOL      0.402997
    189 H93         0.1620    0.5370   -4.4680 ho        1 MOL      0.402997
@<TRIPOS>BOND
     1    1    2 1   
     2    1    4 1   
     3    1    5 1   
     4    1    6 1   
     5    2    3 2   
     6    2    7 1   
     7    7    8 1   
     8    7   15 1   
     9    8    9 1   
    10    8   11 1   
    11    8   16 1   
    12    9   10 2   
    13    9   19 1   
    14   11   12 1   
    15   11   17 1   
    16   11   18 1   
    17   12   13 1   
    18   12   14 1   
    19   19   20 1   
    20   19   28 1   
    21   20   21 1   
    22   20   23 1   
    23   20   29 1   
    24   21   22 2   
    25   21   41 1   
    26   23   24 1   
    27   23   30 1   
    28   23   31 1   
    29   24   25 1   
    30   24   32 1   
    31   24   33 1   
    32   25   26 1   
    33   25   34 1   
    34   25   35 1   
    35   26   27 1   
    36   26   36 1   
    37   26   37 1   
    38   27   38 1   
    39   27   39 1   
    40   27   40 1   
    41   41   42 1   
    42   41   49 1   
    43   42   43 1   
    44   42   45 1   
    45   42   50 1   
    46   43   44 2   
    47   43   53 1   
    48   45   46 1   
    49   45   51 1   
    50   45   52 1   
    51   46   47 1   
    52   46   48 1   
    53   53   54 1   
    54   53   57 1   
    55   54   55 1   
    56   54   58 1   
    57   54   59 1   
    58   55   56 2   
    59   55   60 1   
    60   60   61 1   
    61   60   68 1   
    62   61   62 1   
    63   61   64 1   
    64   61   69 1   
    65   62   63 2   
    66   62   72 1   
    67   64   65 1   
    68   64   70 1   
    69   64   71 1   
    70   65   66 1   
    71   65   67 1   
    72   72   73 1   
    73   72   76 1   
    74   73   74 1   
    75   73   77 1   
    76   73   78 1   
    77   74   75 2   
    78   74   79 1   
    79   79   80 1   
    80   79   86 1   
    81   80   81 1   
    82   80   83 1   
    83   80   87 1   
    84   81   82 2   
    85   81   93 1   
    86   83   84 1   
    87   83   85 1   
    88   83   88 1   
    89   84   90 1   
    90   84   91 1   
    91   84   92 1   
    92   85   89 1   
    93   93   94 1   
    94   93  101 1   
    95   94   95 1   
    96   94   97 1   
    97   94  102 1   
    98   95   96 2   
    99   95  112 1   
   100   97   98 1   
   101   97   99 1   
   102   97  103 1   
   103   98  100 1   
   104   98  104 1   
   105   98  105 1   
   106   99  106 1   
   107   99  107 1   
   108   99  108 1   
   109  100  109 1   
   110  100  110 1   
   111  100  111 1   
   112  112  113 1   
   113  112  119 1   
   114  113  114 1   
   115  113  116 1   
   116  113  120 1   
   117  114  115 2   
   118  114  126 1   
   119  116  117 1   
   120  116  118 1   
   121  116  121 1   
   122  117  123 1   
   123  117  124 1   
   124  117  125 1   
   125  118  122 1   
   126  126  127 1   
   127  126  133 1   
   128  127  128 1   
   129  127  130 1   
   130  127  134 1   
   131  128  129 2   
   132  128  140 1   
   133  130  131 1   
   134  130  132 1   
   135  130  135 1   
   136  131  137 1   
   137  131  138 1   
   138  131  139 1   
   139  132  136 1   
   140  140  141 1   
   141  140  149 1   
   142  141  142 1   
   143  141  144 1   
   144  141  150 1   
   145  142  143 2   
   146  142  162 1   
   147  144  145 1   
   148  144  151 1   
   149  144  152 1   
   150  145  146 1   
   151  145  153 1   
   152  145  154 1   
   153  146  147 1   
   154  146  155 1   
   155  146  156 1   
   156  147  148 1   
   157  147  157 1   
   158  147  158 1   
   159  148  159 1   
   160  148  160 1   
   161  148  161 1   
   162  162  163 1   
   163  162  171 1   
   164  163  164 1   
   165  163  166 1   
   166  163  172 1   
   167  164  165 2   
   168  164  177 1   
   169  166  167 1   
   170  166  173 1   
   171  166  174 1   
   172  167  168 1   
   173  167  175 1   
   174  167  176 1   
   175  168  169 1   
   176  168  170 1   
   177  177  178 1   
   178  177  182 1   
   179  178  179 1   
   180  178  180 1   
   181  178  181 1   
   182  184  185 1   
   183  184  186 1   
   184  187  188 1   
   185  187  189 1   
@<TRIPOS>SUBSTRUCTURE
     1 MOL         1 TEMP              0 ****  ****    0 ROOT
