@<TRIPOS>MOLECULE
MOL
  189   185     1     0     0
SMALL
resp


@<TRIPOS>ATOM
      1 C1          0.7450   -2.6040    6.3660 c3        1 MOL     -0.546092
      2 C2          1.1230   -2.4080    4.8890 c         1 MOL      0.739085
      3 O1          1.0020   -1.3650    4.2890 o         1 MOL     -0.573735
      4 H1          0.5270   -3.6550    6.5480 hc        1 MOL      0.149029
      5 H2          1.5750   -2.2900    6.9980 hc        1 MOL      0.149029
      6 H3         -0.1360   -2.0050    6.5980 hc        1 MOL      0.149029
      7 N1          1.7420   -3.4260    4.2520 n         1 MOL     -0.641794
      8 C3          2.3970   -3.3040    2.9810 c3        1 MOL      0.193840
      9 C4          2.3630   -4.5950    2.1170 c         1 MOL      0.412139
     10 O2          2.7790   -5.6580    2.5570 o         1 MOL     -0.570483
     11 C5          3.8920   -2.9590    3.1900 c3        1 MOL     -0.169185
     12 C6          4.5930   -2.5950    1.8790 c         1 MOL      0.674169
     13 O3          3.8940   -2.1620    0.9730 o         1 MOL     -0.684315
     14 O4          5.8400   -2.6700    1.8170 o         1 MOL     -0.684315
     15 H4          1.9890   -4.2310    4.8040 hn        1 MOL      0.318105
     16 H5          1.9370   -2.4970    2.4090 h1        1 MOL      0.143366
     17 H6          4.3430   -3.8250    3.6730 hc        1 MOL      0.022332
     18 H7          4.0550   -2.1100    3.8470 hc        1 MOL      0.022332
     19 N2          1.8340   -4.5340    0.9360 n         1 MOL     -0.129415
     20 C7          1.9840   -5.5870   -0.0690 c3        1 MOL     -0.004160
     21 C8          3.0880   -5.4340   -1.1270 c         1 MOL      0.549994
     22 O5          3.4210   -6.4350   -1.8150 o         1 MOL     -0.605058
     23 C9          0.6170   -6.0220   -0.6390 c3        1 MOL      0.233872
     24 C10        -0.0890   -4.9570   -1.4940 c3        1 MOL      0.102742
     25 C11        -0.4110   -6.4570    0.4280 c3        1 MOL     -0.170813
     26 C12        -1.2950   -5.4970   -2.2780 c3        1 MOL     -0.320240
     27 H8          1.4500   -3.6480    0.6530 hn        1 MOL     -0.017257
     28 H9          2.3140   -6.5370    0.3720 h1        1 MOL      0.035349
     29 H10         0.8980   -6.8220   -1.3170 hc        1 MOL     -0.059703
     30 H11         0.6450   -4.5780   -2.1940 hc        1 MOL      0.004479
     31 H12        -0.4620   -4.1870   -0.8070 hc        1 MOL      0.004479
     32 H13        -0.9040   -5.6810    1.0170 hc        1 MOL      0.020413
     33 H14        -1.1510   -7.1610    0.0550 hc        1 MOL      0.020413
     34 H15         0.1410   -7.0700    1.1420 hc        1 MOL      0.020413
     35 H16        -0.9480   -6.4760   -2.6010 hc        1 MOL      0.072941
     36 H17        -2.1660   -5.5420   -1.6080 hc        1 MOL      0.072941
     37 H18        -1.5360   -4.8770   -3.1300 hc        1 MOL      0.072941
     38 N3          3.6030   -4.2510   -1.3120 n         1 MOL     -0.456936
     39 C13         4.2840   -3.8970   -2.5950 c3        1 MOL     -0.037223
     40 C14         5.6790   -3.1220   -2.5280 c         1 MOL      0.407310
     41 O6          6.3800   -2.9660   -3.5020 o         1 MOL     -0.540890
     42 C15         3.2520   -3.2390   -3.5310 c3        1 MOL     -0.093332
     43 C16         2.5000   -2.0140   -3.0270 c         1 MOL      0.698027
     44 O7          3.0930   -1.4560   -2.0380 o         1 MOL     -0.667466
     45 O8          1.5110   -1.5340   -3.6430 o         1 MOL     -0.667466
     46 H19         3.2830   -3.5470   -0.6530 hn        1 MOL      0.365491
     47 H20         4.5700   -4.8050   -3.1240 h1        1 MOL      0.123134
     48 H21         2.4850   -3.9950   -3.7330 hc        1 MOL      0.022755
     49 H22         3.7090   -3.0750   -4.5090 hc        1 MOL      0.022755
     50 N4          6.1740   -2.7710   -1.3680 n         1 MOL     -0.112291
     51 C17         7.5380   -2.2070   -1.1410 c3        1 MOL     -0.194322
     52 C18         7.7750   -0.8530   -1.7700 c         1 MOL      0.502021
     53 O9          8.8700   -0.6000   -2.1990 o         1 MOL     -0.590825
     54 H23         5.5830   -2.8720   -0.5540 hn        1 MOL      0.130250
     55 H24         8.1820   -2.9890   -1.5360 h1        1 MOL      0.096760
     56 H25         7.7140   -2.0210   -0.0750 h1        1 MOL      0.096760
     57 N5          6.7000   -0.0630   -1.9620 n         1 MOL     -0.028868
     58 C19         6.6540    1.1780   -2.6860 c3        1 MOL     -0.354193
     59 C20         6.7400    2.4540   -1.8440 c         1 MOL      0.550263
     60 O10         6.5610    3.5690   -2.2750 o         1 MOL     -0.549564
     61 C21         5.2730    1.1550   -3.5060 c3        1 MOL      0.014423
     62 C22         4.0280    1.4350   -2.6880 c         1 MOL      0.707280
     63 O11         3.9910    1.4100   -1.4070 o         1 MOL     -0.667758
     64 O12         3.0600    1.6650   -3.3860 o         1 MOL     -0.667758
     65 H26         5.8160   -0.4300   -1.6490 hn        1 MOL      0.153435
     66 H27         7.3890    1.2380   -3.4860 h1        1 MOL      0.154715
     67 H28         5.1300    0.2160   -4.0330 hc        1 MOL      0.019070
     68 H29         5.3650    1.8930   -4.3100 hc        1 MOL      0.019070
     69 N6          6.9000    2.2360   -0.5630 n         1 MOL     -0.352208
     70 C23         7.0770    3.3260    0.4140 c3        1 MOL     -0.111476
     71 C24         5.8640    4.1150    0.9010 c         1 MOL      0.489278
     72 O13         6.1270    5.1390    1.4800 o         1 MOL     -0.566665
     73 H30         6.9150    1.2830   -0.2370 hn        1 MOL      0.230137
     74 H31         7.8650    3.9760    0.0390 h1        1 MOL      0.088694
     75 H32         7.5100    2.9100    1.3320 h1        1 MOL      0.088694
     76 N7          4.6060    3.6980    0.6290 n         1 MOL     -0.362052
     77 C25         3.4510    4.4690    1.0540 c3        1 MOL      0.051631
     78 C26         2.2630    3.5200    1.2710 c         1 MOL      0.557272
     79 O14         2.2610    2.3960    0.7350 o         1 MOL     -0.625771
     80 C27         3.1260    5.5710   -0.0030 c3        1 MOL     -0.135953
     81 C28         4.1870    6.5690   -0.3420 c3        1 MOL     -0.177665
     82 C29         3.7680    7.5730   -1.3460 c         1 MOL      0.621226
     83 N8          3.5770    7.1110   -2.5680 n         1 MOL     -0.806684
     84 O15         3.4890    8.7180   -1.0840 o         1 MOL     -0.583034
     85 H33         4.4750    2.8630    0.0670 hn        1 MOL      0.275636
     86 H34         3.6180    4.9800    1.9960 h1        1 MOL      0.040167
     87 H35         2.2430    6.0520    0.4080 hc        1 MOL      0.086750
     88 H36         2.9040    5.0480   -0.9320 hc        1 MOL      0.086750
     89 H37         5.0210    6.0430   -0.8080 hc        1 MOL      0.099575
     90 H38         4.5480    7.0780    0.5560 hc        1 MOL      0.099575
     91 H39         3.7860    6.1550   -2.8110 hn        1 MOL      0.370433
     92 H40         2.9700    7.6810   -3.1450 hn        1 MOL      0.370433
     93 N9          1.2050    3.9170    1.9560 n         1 MOL     -0.594998
     94 C30        -0.0120    3.0730    2.0310 c3        1 MOL      0.282556
     95 C31        -1.0840    3.5020    0.9620 c         1 MOL      0.398816
     96 O16        -1.3110    4.7190    0.8930 o         1 MOL     -0.597848
     97 C32        -0.4720    3.2320    3.5140 c3        1 MOL      0.075883
     98 C33        -1.9910    2.9520    3.7130 c3        1 MOL     -0.259746
     99 C34         0.2940    2.1630    4.3080 c3        1 MOL     -0.259746
    100 H41         1.2750    4.8380    2.3320 hn        1 MOL      0.310415
    101 H42         0.1970    2.0260    1.8440 h1        1 MOL      0.179852
    102 H43        -0.3150    4.2610    3.8450 hc        1 MOL      0.018296
    103 H44        -2.3710    2.0100    3.3140 hc        1 MOL      0.053453
    104 H45        -2.0880    2.8990    4.7950 hc        1 MOL      0.053453
    105 H46        -2.6680    3.7690    3.4940 hc        1 MOL      0.053453
    106 H47         0.0340    1.1190    4.1250 hc        1 MOL      0.053453
    107 H48         1.3350    2.2360    4.0250 hc        1 MOL      0.053453
    108 H49         0.0280    2.4380    5.3250 hc        1 MOL      0.053453
    109 N10        -1.7590    2.5780    0.3290 n         1 MOL     -0.039823
    110 C35        -2.9420    2.8760   -0.5050 c3        1 MOL      0.126830
    111 C36        -4.2860    2.6060    0.1730 c         1 MOL      0.350580
    112 O17        -4.2440    2.0490    1.3070 o         1 MOL     -0.405938
    113 C37        -2.8210    2.1410   -1.8880 c3        1 MOL     -0.200772
    114 C38        -3.1830    0.7220   -1.8380 c         1 MOL      0.766610
    115 N11        -2.2100   -0.1020   -1.6180 n         1 MOL     -0.724212
    116 O18        -4.2860    0.2260   -1.7700 o         1 MOL     -0.603106
    117 H50        -1.5330    1.6100    0.5340 hn        1 MOL     -0.086308
    118 H51        -3.0290    3.9450   -0.7270 h1        1 MOL      0.065466
    119 H52        -1.8330    2.3020   -2.3160 hc        1 MOL      0.044038
    120 H53        -3.6090    2.6600   -2.4170 hc        1 MOL      0.044038
    121 H54        -1.2840    0.2250   -1.3870 hn        1 MOL      0.371698
    122 H55        -2.5100   -1.0530   -1.4580 hn        1 MOL      0.371698
    123 N12        -5.4410    2.8150   -0.4990 n         1 MOL     -0.471369
    124 C39        -6.7870    2.6510    0.1510 c3        1 MOL      0.200425
    125 C40        -7.1800    1.1750    0.5950 c         1 MOL      0.380860
    126 O19        -8.2070    1.0070    1.2290 o         1 MOL     -0.549153
    127 C41        -7.8420    3.3240   -0.6680 c3        1 MOL     -0.084048
    128 C42        -8.6920    2.4340   -1.5920 ca        1 MOL     -0.023388
    129 C43        -9.7620    1.6790   -1.1170 ca        1 MOL     -0.105665
    130 C44        -8.4310    2.3280   -2.9950 ca        1 MOL     -0.105665
    131 C45       -10.4510    0.7580   -1.8850 ca        1 MOL     -0.367284
    132 C46        -9.0520    1.4180   -3.7830 ca        1 MOL     -0.367284
    133 C47       -10.0410    0.6130   -3.2140 ca        1 MOL      0.418331
    134 O20       -10.6880   -0.2390   -4.0600 oh        1 MOL     -0.466418
    135 H56        -5.4830    3.0860   -1.4640 hn        1 MOL      0.331245
    136 H57        -6.7360    3.2690    1.0500 h1        1 MOL      0.053849
    137 H58        -7.3880    4.0520   -1.3490 hc        1 MOL      0.016368
    138 H59        -8.4530    3.8380    0.0730 hc        1 MOL      0.016368
    139 H60       -10.0020    1.6520   -0.0670 ha        1 MOL      0.120557
    140 H61        -7.5240    2.8580   -3.2650 ha        1 MOL      0.120557
    141 H62       -11.1590    0.1470   -1.3380 ha        1 MOL      0.192702
    142 H63        -8.7260    1.2980   -4.8130 ha        1 MOL      0.192702
    143 H64       -11.2780   -0.7590   -3.4930 ho        1 MOL      0.336875
    144 N13        -6.4340    0.1180    0.1400 n         1 MOL      0.021030
    145 C48        -6.5740   -1.3330    0.5160 c3        1 MOL      0.041267
    146 C49        -5.3390   -1.7980    1.4790 c         1 MOL      0.290010
    147 O21        -5.5220   -2.8090    2.1050 o         1 MOL     -0.515270
    148 C50        -6.7170   -2.1880   -0.7140 c3        1 MOL     -0.168328
    149 C51        -7.7620   -1.7170   -1.7320 c3        1 MOL     -0.072237
    150 C52        -7.8090   -2.7410   -2.8870 c         1 MOL      0.671384
    151 O22        -8.5540   -3.7640   -2.7550 o         1 MOL     -0.738749
    152 O23        -7.0620   -2.4910   -3.8900 o         1 MOL     -0.738749
    153 H65        -5.6430    0.3580   -0.4420 hn        1 MOL      0.021938
    154 H66        -7.4770   -1.4120    1.1230 h1        1 MOL      0.050092
    155 H67        -6.8850   -3.2150   -0.3890 hc        1 MOL      0.083860
    156 H68        -5.6960   -2.1240   -1.1100 hc        1 MOL      0.083860
    157 H69        -7.4860   -0.7140   -2.0800 hc        1 MOL      0.014794
    158 H70        -8.7450   -1.6410   -1.2680 hc        1 MOL      0.014794
    159 N14        -4.3160   -1.0380    1.6050 n         1 MOL     -0.008062
    160 C53        -3.3050   -1.1880    2.6680 c3        1 MOL     -0.105141
    161 C54        -3.7230   -0.4790    3.9400 c         1 MOL      0.450727
    162 O24        -3.2010   -0.7550    5.0640 o         1 MOL     -0.556473
    163 C55        -1.9120   -0.7540    2.2910 c3        1 MOL     -0.062786
    164 C56        -1.2930   -1.7940    1.3010 c3        1 MOL     -0.230118
    165 C57        -0.1000   -1.1890    0.5910 c         1 MOL      0.748426
    166 O25         0.8530   -1.9550    0.2680 o         1 MOL     -0.724874
    167 O26         0.0310    0.0400    0.3590 o         1 MOL     -0.724874
    168 H71        -4.3030   -0.2070    1.0280 hn        1 MOL     -0.020772
    169 H72        -3.2630   -2.2490    2.9040 h1        1 MOL      0.089034
    170 H73        -1.3740   -0.5120    3.2110 hc        1 MOL      0.112319
    171 H74        -2.0200    0.1970    1.7690 hc        1 MOL      0.112319
    172 H75        -2.0430   -2.2720    0.6690 hc        1 MOL      0.112395
    173 H76        -0.9210   -2.6080    1.9220 hc        1 MOL      0.112395
    174 N15        -4.6650    0.4800    3.7870 n         1 MOL     -0.164324
    175 C58        -5.2220    1.3490    4.8360 c3        1 MOL     -0.105484
    176 H77        -4.5810    2.2220    4.9630 h1        1 MOL      0.061759
    177 H78        -6.2220    1.6730    4.5480 h1        1 MOL      0.061759
    178 H79        -5.2750    0.7980    5.7760 h1        1 MOL      0.061759
    179 H80        -4.9240    0.7050    2.8350 hn        1 MOL      0.128521
    180 Ca1         2.6030   -0.0190    0.1500 Ca        1 MOL      1.676905
    181 O27         2.4420    0.0200    2.7970 oh        1 MOL     -0.861218
    182 H81         1.9970   -0.5910    3.3800 ho        1 MOL      0.401125
    183 H82         3.1170    0.4250    3.3420 ho        1 MOL      0.401125
    184 O28         5.1860    0.4340    1.1940 oh        1 MOL     -0.861218
    185 H83         5.3220    1.0260    1.9350 ho        1 MOL      0.401125
    186 H84         5.5630   -0.3940    1.4830 ho        1 MOL      0.401125
    187 O29         0.9310    0.5830   -2.2590 oh        1 MOL     -0.861218
    188 H85         1.5500    1.1230   -2.7630 ho        1 MOL      0.401125
    189 H86         1.0550   -0.3000   -2.6000 ho        1 MOL      0.401125
@<TRIPOS>BOND
     1    1    2 1   
     2    1    4 1   
     3    1    5 1   
     4    1    6 1   
     5    2    3 2   
     6    2    7 1   
     7    7    8 1   
     8    7   15 1   
     9    8    9 1   
    10    8   11 1   
    11    8   16 1   
    12    9   10 2   
    13    9   19 1   
    14   11   12 1   
    15   11   17 1   
    16   11   18 1   
    17   12   13 1   
    18   12   14 1   
    19   19   20 1   
    20   19   27 1   
    21   20   21 1   
    22   20   23 1   
    23   20   28 1   
    24   21   22 2   
    25   21   38 1   
    26   23   24 1   
    27   23   25 1   
    28   23   29 1   
    29   24   26 1   
    30   24   30 1   
    31   24   31 1   
    32   25   32 1   
    33   25   33 1   
    34   25   34 1   
    35   26   35 1   
    36   26   36 1   
    37   26   37 1   
    38   38   39 1   
    39   38   46 1   
    40   39   40 1   
    41   39   42 1   
    42   39   47 1   
    43   40   41 2   
    44   40   50 1   
    45   42   43 1   
    46   42   48 1   
    47   42   49 1   
    48   43   44 1   
    49   43   45 1   
    50   50   51 1   
    51   50   54 1   
    52   51   52 1   
    53   51   55 1   
    54   51   56 1   
    55   52   53 2   
    56   52   57 1   
    57   57   58 1   
    58   57   65 1   
    59   58   59 1   
    60   58   61 1   
    61   58   66 1   
    62   59   60 2   
    63   59   69 1   
    64   61   62 1   
    65   61   67 1   
    66   61   68 1   
    67   62   63 1   
    68   62   64 1   
    69   69   70 1   
    70   69   73 1   
    71   70   71 1   
    72   70   74 1   
    73   70   75 1   
    74   71   72 2   
    75   71   76 1   
    76   76   77 1   
    77   76   85 1   
    78   77   78 1   
    79   77   80 1   
    80   77   86 1   
    81   78   79 2   
    82   78   93 1   
    83   80   81 1   
    84   80   87 1   
    85   80   88 1   
    86   81   82 1   
    87   81   89 1   
    88   81   90 1   
    89   82   83 1   
    90   82   84 2   
    91   83   91 1   
    92   83   92 1   
    93   93   94 1   
    94   93  100 1   
    95   94   95 1   
    96   94   97 1   
    97   94  101 1   
    98   95   96 2   
    99   95  109 1   
   100   97   98 1   
   101   97   99 1   
   102   97  102 1   
   103   98  103 1   
   104   98  104 1   
   105   98  105 1   
   106   99  106 1   
   107   99  107 1   
   108   99  108 1   
   109  109  110 1   
   110  109  117 1   
   111  110  111 1   
   112  110  113 1   
   113  110  118 1   
   114  111  112 2   
   115  111  123 1   
   116  113  114 1   
   117  113  119 1   
   118  113  120 1   
   119  114  115 1   
   120  114  116 2   
   121  115  121 1   
   122  115  122 1   
   123  123  124 1   
   124  123  135 1   
   125  124  125 1   
   126  124  127 1   
   127  124  136 1   
   128  125  126 2   
   129  125  144 1   
   130  127  128 1   
   131  127  137 1   
   132  127  138 1   
   133  128  129 ar  
   134  128  130 ar  
   135  129  131 ar  
   136  129  139 1   
   137  130  132 ar  
   138  130  140 1   
   139  131  133 ar  
   140  131  141 1   
   141  132  133 ar  
   142  132  142 1   
   143  133  134 1   
   144  134  143 1   
   145  144  145 1   
   146  144  153 1   
   147  145  146 1   
   148  145  148 1   
   149  145  154 1   
   150  146  147 2   
   151  146  159 1   
   152  148  149 1   
   153  148  155 1   
   154  148  156 1   
   155  149  150 1   
   156  149  157 1   
   157  149  158 1   
   158  150  151 1   
   159  150  152 1   
   160  159  160 1   
   161  159  168 1   
   162  160  161 1   
   163  160  163 1   
   164  160  169 1   
   165  161  162 2   
   166  161  174 1   
   167  163  164 1   
   168  163  170 1   
   169  163  171 1   
   170  164  165 1   
   171  164  172 1   
   172  164  173 1   
   173  165  166 1   
   174  165  167 1   
   175  174  175 1   
   176  174  179 1   
   177  175  176 1   
   178  175  177 1   
   179  175  178 1   
   180  181  182 1   
   181  181  183 1   
   182  184  185 1   
   183  184  186 1   
   184  187  188 1   
   185  187  189 1   
@<TRIPOS>SUBSTRUCTURE
     1 MOL         1 TEMP              0 ****  ****    0 ROOT
