@<TRIPOS>MOLECULE
MOL
  176   174     1     0     0
SMALL
resp


@<TRIPOS>ATOM
      1 C1          0.2280   -4.3120    6.1070 c3        1 MOL     -0.230696
      2 C2          0.2930   -3.6940    4.6770 c         1 MOL      0.635468
      3 O1         -0.6030   -3.9950    3.8460 o         1 MOL     -0.571723
      4 H1          1.0270   -3.8940    6.7190 hc        1 MOL      0.060254
      5 H2         -0.7350   -4.0810    6.5600 hc        1 MOL      0.060254
      6 H3          0.3500   -5.3940    6.0410 hc        1 MOL      0.060254
      7 N1          1.4050   -3.0750    4.3790 n         1 MOL     -0.510616
      8 C3          1.7410   -2.6790    2.9780 c3        1 MOL      0.148810
      9 C4          2.0730   -3.8740    2.0810 c         1 MOL      0.474039
     10 O2          3.0440   -4.6250    2.3720 o         1 MOL     -0.526850
     11 C5          2.7210   -1.4960    3.0410 c3        1 MOL     -0.484294
     12 C6          2.9070   -0.8970    1.6460 c         1 MOL      0.843039
     13 O3          3.0530    0.3280    1.4240 o         1 MOL     -0.699721
     14 O4          2.7670   -1.6030    0.5990 o         1 MOL     -0.699721
     15 H4          2.1260   -2.9480    5.0730 hn        1 MOL      0.323564
     16 H5          0.7700   -2.2740    2.6810 h1        1 MOL      0.020605
     17 H6          3.7070   -1.7410    3.4330 hc        1 MOL      0.132149
     18 H7          2.2010   -0.8340    3.7380 hc        1 MOL      0.132149
     19 N2          1.1550   -4.0930    1.0830 n         1 MOL     -0.131817
     20 C7          1.1770   -5.3430    0.1550 c3        1 MOL     -0.279058
     21 C8          2.2930   -5.4130   -0.8020 c         1 MOL      0.510116
     22 O5          2.8130   -6.5000   -1.1820 o         1 MOL     -0.555771
     23 C9         -0.1660   -5.4250   -0.5800 c3        1 MOL      0.015296
     24 C10        -0.3170   -4.4930   -1.8380 c3        1 MOL      0.217037
     25 C11        -1.6960   -4.7600   -2.5320 c3        1 MOL      0.085628
     26 C12        -1.8140   -4.2280   -3.9180 c3        1 MOL      0.015299
     27 N3         -3.0160   -4.6010   -4.6420 n4        1 MOL     -0.258525
     28 H8          0.3440   -3.4880    1.1420 hn        1 MOL      0.203225
     29 H9          1.1890   -6.1720    0.8590 h1        1 MOL      0.163601
     30 H10        -1.0190   -5.2980    0.0880 hc        1 MOL      0.028159
     31 H11        -0.3220   -6.4160   -1.0080 hc        1 MOL      0.028159
     32 H12         0.4300   -4.8420   -2.5510 hc        1 MOL     -0.067614
     33 H13        -0.1520   -3.4610   -1.5240 hc        1 MOL     -0.067614
     34 H14        -2.5180   -4.3570   -1.9280 hc        1 MOL     -0.018992
     35 H15        -1.7850   -5.8460   -2.5790 hc        1 MOL     -0.018992
     36 H16        -1.0050   -4.8060   -4.3750 hx        1 MOL      0.068532
     37 H17        -1.6380   -3.1760   -4.1000 hx        1 MOL      0.068532
     38 H18        -3.7380   -4.0340   -4.2360 hn        1 MOL      0.303227
     39 H19        -2.9310   -4.3920   -5.6330 hn        1 MOL      0.303227
     40 H20        -3.3280   -5.5580   -4.5650 hn        1 MOL      0.303227
     41 N4          2.7940   -4.3040   -1.2750 n         1 MOL     -0.103032
     42 C13         3.9040   -4.1390   -2.1710 c3        1 MOL      0.001928
     43 C14         5.1950   -3.7900   -1.4130 c         1 MOL      0.447679
     44 O6          6.2520   -4.3870   -1.6910 o         1 MOL     -0.563137
     45 C15         3.7100   -3.0400   -3.2400 c3        1 MOL     -0.208581
     46 C16         3.1590   -1.6920   -2.8360 c         1 MOL      0.741100
     47 O7          1.9480   -1.4330   -3.0650 o         1 MOL     -0.740606
     48 O8          3.8860   -0.8620   -2.2170 o         1 MOL     -0.740606
     49 H21         2.2900   -3.5070   -0.9220 hn        1 MOL      0.042968
     50 H22         4.0110   -5.0740   -2.7290 h1        1 MOL      0.095044
     51 H23         3.0650   -3.4260   -4.0320 hc        1 MOL      0.055427
     52 H24         4.6670   -2.9050   -3.7460 hc        1 MOL      0.055427
     53 N5          5.0110   -3.0810   -0.3350 n         1 MOL     -0.135316
     54 C17         6.2040   -2.6500    0.4900 c3        1 MOL     -0.153235
     55 C18         6.6930   -1.1880    0.3030 c         1 MOL      0.491537
     56 O9          7.6140   -0.7960    1.0540 o         1 MOL     -0.559692
     57 H25         4.0600   -2.8160   -0.1010 hn        1 MOL      0.139946
     58 H26         7.0540   -3.3280    0.4020 h1        1 MOL      0.116572
     59 H27         5.9400   -2.6790    1.5480 h1        1 MOL      0.116572
     60 N6          6.1040   -0.2990   -0.5680 n         1 MOL     -0.251308
     61 C19         6.7430    1.0160   -0.8440 c3        1 MOL      0.009169
     62 C20         6.6460    2.0360    0.3510 c         1 MOL      0.447056
     63 O10         7.3630    3.0160    0.3580 o         1 MOL     -0.537236
     64 C21         6.0450    1.5940   -2.1180 c3        1 MOL     -0.228507
     65 C22         4.6740    2.2090   -1.8660 c         1 MOL      0.460514
     66 N7          4.3280    3.2730   -2.5700 n         1 MOL     -0.570123
     67 O11         3.9100    1.7770   -1.0190 o         1 MOL     -0.429037
     68 H28         5.2070   -0.4450   -1.0070 hn        1 MOL      0.155623
     69 H29         7.7620    0.8470   -1.1630 h1        1 MOL      0.099133
     70 H30         5.9020    0.8310   -2.8790 hc        1 MOL      0.101494
     71 H31         6.6800    2.3860   -2.5170 hc        1 MOL      0.101494
     72 H32         4.8990    3.7010   -3.2840 hn        1 MOL      0.310117
     73 H33         3.3670    3.5620   -2.4920 hn        1 MOL      0.310117
     74 N8          5.7180    1.8170    1.3250 n         1 MOL     -0.078280
     75 C23         5.6360    2.6620    2.4990 c3        1 MOL     -0.158296
     76 C24         4.4350    3.6800    2.4830 c         1 MOL      0.532143
     77 O12         4.4210    4.6340    3.2600 o         1 MOL     -0.574273
     78 H34         5.1370    0.9980    1.1840 hn        1 MOL      0.148462
     79 H35         6.5450    3.2470    2.6770 h1        1 MOL      0.089074
     80 H36         5.5540    1.9250    3.3060 h1        1 MOL      0.089074
     81 N9          3.4160    3.3300    1.7520 n         1 MOL     -0.169404
     82 C25         2.0840    3.9510    1.8090 c3        1 MOL      0.034877
     83 C26         0.9270    3.0850    1.2040 c         1 MOL      0.438506
     84 O13         1.0730    2.3670    0.2180 o         1 MOL     -0.548764
     85 C27         2.0710    5.3140    1.1890 c3        1 MOL     -0.162180
     86 C28         2.0260    5.3600   -0.3500 ca        1 MOL      0.083703
     87 C29         0.8300    5.3130   -1.0750 ca        1 MOL     -0.137643
     88 C30         3.2170    5.6190   -0.9850 ca        1 MOL     -0.137643
     89 C31         0.7910    5.4620   -2.4560 ca        1 MOL     -0.287263
     90 C32         3.1880    6.0320   -2.3010 ca        1 MOL     -0.287263
     91 C33         2.0080    5.9170   -3.0570 ca        1 MOL      0.317890
     92 O14         2.1070    5.9810   -4.4090 oh        1 MOL     -0.536541
     93 H37         3.5390    2.5260    1.1640 hn        1 MOL      0.060840
     94 H38         1.7250    4.1180    2.8250 h1        1 MOL      0.056025
     95 H39         2.8500    5.9880    1.5400 hc        1 MOL      0.072707
     96 H40         1.1130    5.7390    1.4930 hc        1 MOL      0.072707
     97 H41        -0.0540    5.1580   -0.4700 ha        1 MOL      0.146165
     98 H42         4.1140    5.6880   -0.3810 ha        1 MOL      0.146165
     99 H43        -0.1420    5.3140   -2.9820 ha        1 MOL      0.156668
    100 H44         4.1350    6.2740   -2.7660 ha        1 MOL      0.156668
    101 H45         1.2970    5.9880   -4.9200 ho        1 MOL      0.391802
    102 N10        -0.2390    3.3170    1.7610 n         1 MOL     -0.528174
    103 C34        -1.4760    2.5050    1.5790 c3        1 MOL      0.183265
    104 C35        -2.7090    3.3090    1.3330 c         1 MOL      0.409252
    105 O15        -2.7600    4.5190    1.7040 o         1 MOL     -0.524242
    106 C36        -1.5010    1.4460    2.7950 c3        1 MOL      0.045100
    107 C37        -1.8980    2.0710    4.1550 c3        1 MOL      0.071184
    108 C38        -0.2230    0.5780    2.9790 c3        1 MOL     -0.185099
    109 C39        -3.4060    2.2110    4.4220 c3        1 MOL     -0.278170
    110 H46        -0.2920    4.1200    2.3880 hn        1 MOL      0.366133
    111 H47        -1.3520    1.8920    0.6840 h1        1 MOL      0.061691
    112 H48        -2.2920    0.8210    2.3860 hc        1 MOL     -0.046221
    113 H49        -1.3280    3.0020    4.2040 hc        1 MOL     -0.002475
    114 H50        -1.5430    1.3950    4.9330 hc        1 MOL     -0.002475
    115 H51        -0.4110   -0.3420    3.5280 hc        1 MOL      0.054724
    116 H52         0.2340    0.2690    2.0340 hc        1 MOL      0.054724
    117 H53         0.4460    1.1700    3.6180 hc        1 MOL      0.054724
    118 H54        -3.9030    2.6950    3.5890 hc        1 MOL      0.076549
    119 H55        -3.8040    1.2200    4.6340 hc        1 MOL      0.076549
    120 H56        -3.5050    2.8980    5.2650 hc        1 MOL      0.076549
    121 N11        -3.5970    2.7200    0.4770 n         1 MOL     -0.166725
    122 C40        -4.8850    3.2380   -0.0720 c3        1 MOL      0.020850
    123 C41        -6.0740    2.3760    0.3880 c         1 MOL      0.518833
    124 O16        -5.8280    1.3710    1.1290 o         1 MOL     -0.516729
    125 C42        -4.7710    3.4040   -1.5320 c3        1 MOL     -0.355305
    126 O17        -4.6070    2.1330   -2.0150 oh        1 MOL     -0.343809
    127 H57        -3.2110    1.9510   -0.0570 hn        1 MOL      0.134865
    128 H58        -4.9990    4.1620    0.4960 h1        1 MOL      0.084705
    129 H59        -3.8620    3.9420   -1.7880 h1        1 MOL      0.164482
    130 H60        -5.7020    3.8670   -1.8700 h1        1 MOL      0.164482
    131 H61        -4.4450    2.1780   -2.9570 ho        1 MOL      0.370434
    132 N12        -7.3120    2.7100   -0.0200 n         1 MOL     -0.480851
    133 C43        -8.5170    1.9170    0.3920 c3        1 MOL      0.138478
    134 C44        -8.6930    0.5540   -0.3490 c         1 MOL      0.411063
    135 O18        -9.4300   -0.3120    0.0760 o         1 MOL     -0.469624
    136 C45        -9.8050    2.8260    0.1800 c3        1 MOL     -0.325162
    137 H62        -7.4420    3.5620   -0.5440 hn        1 MOL      0.313109
    138 H63        -8.4370    1.7100    1.4650 h1        1 MOL      0.102322
    139 H64        -9.6740    3.8560    0.5180 hc        1 MOL      0.107706
    140 H65       -10.1690    2.8360   -0.8470 hc        1 MOL      0.107706
    141 H66       -10.5120    2.2710    0.7920 hc        1 MOL      0.107706
    142 N13        -7.9750    0.4250   -1.4950 n         1 MOL     -0.349857
    143 C46        -7.8110   -0.9080   -2.0220 c3        1 MOL      0.163466
    144 C47        -6.6650   -1.7610   -1.4300 c         1 MOL      0.283065
    145 O19        -6.7820   -2.9740   -1.2710 o         1 MOL     -0.489372
    146 C48        -7.6310   -0.7310   -3.5600 c3        1 MOL     -0.153310
    147 H67        -7.5290    1.1740   -2.0030 hn        1 MOL      0.222138
    148 H68        -8.7540   -1.4660   -1.9740 h1        1 MOL      0.092197
    149 H69        -7.6600   -1.6980   -4.0760 hc        1 MOL      0.036843
    150 H70        -8.5100   -0.2150   -3.9350 hc        1 MOL      0.036843
    151 H71        -6.7030   -0.1780   -3.6950 hc        1 MOL      0.036843
    152 N14        -5.5530   -1.1430   -1.0050 n         1 MOL     -0.066884
    153 C49        -4.6720   -1.9080   -0.1510 c3        1 MOL     -0.292906
    154 C50        -5.2350   -2.2530    1.1660 c         1 MOL      0.591676
    155 O20        -4.9180   -3.3700    1.6250 o         1 MOL     -0.560607
    156 C51        -3.3010   -1.1730    0.0750 c3        1 MOL      0.059911
    157 C52        -2.4720   -1.1260   -1.1680 c3        1 MOL      0.032428
    158 C53        -1.1140   -0.5870   -0.9480 c         1 MOL      0.678902
    159 O21        -0.2810   -1.2060   -0.2510 o         1 MOL     -0.675094
    160 O22        -0.6710    0.3010   -1.6890 o         1 MOL     -0.675094
    161 H72        -5.2920   -0.1680   -1.0770 hn        1 MOL      0.100265
    162 H73        -4.3140   -2.7870   -0.6890 h1        1 MOL      0.132526
    163 H74        -2.7210   -1.6660    0.8490 hc        1 MOL      0.028658
    164 H75        -3.5380   -0.1660    0.4170 hc        1 MOL      0.028658
    165 H76        -3.0150   -0.4160   -1.8020 hc        1 MOL     -0.077288
    166 H77        -2.4430   -2.0770   -1.7010 hc        1 MOL     -0.077288
    167 N15        -6.0080   -1.3910    1.8290 n         1 MOL     -0.177869
    168 C54        -6.6270   -1.6330    3.0790 c3        1 MOL     -0.323905
    169 H78        -5.9150   -1.4380    3.8800 h1        1 MOL      0.121812
    170 H79        -7.4890   -0.9770    3.1920 h1        1 MOL      0.121812
    171 H80        -6.9510   -2.6720    3.1290 h1        1 MOL      0.121812
    172 H81        -5.9830   -0.4150    1.5570 hn        1 MOL      0.235065
    173 Ca1         1.8130    0.2220   -0.9560 Ca        1 MOL      1.711370
    174 O23         1.3740    1.6890   -3.1240 oh        1 MOL     -0.856085
    175 H82         0.6300    1.4750   -3.6810 ho        1 MOL      0.405435
    176 H83         2.0240    2.0590   -3.7200 ho        1 MOL      0.405435
@<TRIPOS>BOND
     1    1    2 1   
     2    1    4 1   
     3    1    5 1   
     4    1    6 1   
     5    2    3 2   
     6    2    7 1   
     7    7    8 1   
     8    7   15 1   
     9    8    9 1   
    10    8   11 1   
    11    8   16 1   
    12    9   10 2   
    13    9   19 1   
    14   11   12 1   
    15   11   17 1   
    16   11   18 1   
    17   12   13 1   
    18   12   14 1   
    19   19   20 1   
    20   19   28 1   
    21   20   21 1   
    22   20   23 1   
    23   20   29 1   
    24   21   22 2   
    25   21   41 1   
    26   23   24 1   
    27   23   30 1   
    28   23   31 1   
    29   24   25 1   
    30   24   32 1   
    31   24   33 1   
    32   25   26 1   
    33   25   34 1   
    34   25   35 1   
    35   26   27 1   
    36   26   36 1   
    37   26   37 1   
    38   27   38 1   
    39   27   39 1   
    40   27   40 1   
    41   41   42 1   
    42   41   49 1   
    43   42   43 1   
    44   42   45 1   
    45   42   50 1   
    46   43   44 2   
    47   43   53 1   
    48   45   46 1   
    49   45   51 1   
    50   45   52 1   
    51   46   47 1   
    52   46   48 1   
    53   53   54 1   
    54   53   57 1   
    55   54   55 1   
    56   54   58 1   
    57   54   59 1   
    58   55   56 2   
    59   55   60 1   
    60   60   61 1   
    61   60   68 1   
    62   61   62 1   
    63   61   64 1   
    64   61   69 1   
    65   62   63 2   
    66   62   74 1   
    67   64   65 1   
    68   64   70 1   
    69   64   71 1   
    70   65   66 1   
    71   65   67 2   
    72   66   72 1   
    73   66   73 1   
    74   74   75 1   
    75   74   78 1   
    76   75   76 1   
    77   75   79 1   
    78   75   80 1   
    79   76   77 2   
    80   76   81 1   
    81   81   82 1   
    82   81   93 1   
    83   82   83 1   
    84   82   85 1   
    85   82   94 1   
    86   83   84 2   
    87   83  102 1   
    88   85   86 1   
    89   85   95 1   
    90   85   96 1   
    91   86   87 ar  
    92   86   88 ar  
    93   87   89 ar  
    94   87   97 1   
    95   88   90 ar  
    96   88   98 1   
    97   89   91 ar  
    98   89   99 1   
    99   90   91 ar  
   100   90  100 1   
   101   91   92 1   
   102   92  101 1   
   103  102  103 1   
   104  102  110 1   
   105  103  104 1   
   106  103  106 1   
   107  103  111 1   
   108  104  105 2   
   109  104  121 1   
   110  106  107 1   
   111  106  108 1   
   112  106  112 1   
   113  107  109 1   
   114  107  113 1   
   115  107  114 1   
   116  108  115 1   
   117  108  116 1   
   118  108  117 1   
   119  109  118 1   
   120  109  119 1   
   121  109  120 1   
   122  121  122 1   
   123  121  127 1   
   124  122  123 1   
   125  122  125 1   
   126  122  128 1   
   127  123  124 2   
   128  123  132 1   
   129  125  126 1   
   130  125  129 1   
   131  125  130 1   
   132  126  131 1   
   133  132  133 1   
   134  132  137 1   
   135  133  134 1   
   136  133  136 1   
   137  133  138 1   
   138  134  135 2   
   139  134  142 1   
   140  136  139 1   
   141  136  140 1   
   142  136  141 1   
   143  142  143 1   
   144  142  147 1   
   145  143  144 1   
   146  143  146 1   
   147  143  148 1   
   148  144  145 2   
   149  144  152 1   
   150  146  149 1   
   151  146  150 1   
   152  146  151 1   
   153  152  153 1   
   154  152  161 1   
   155  153  154 1   
   156  153  156 1   
   157  153  162 1   
   158  154  155 2   
   159  154  167 1   
   160  156  157 1   
   161  156  163 1   
   162  156  164 1   
   163  157  158 1   
   164  157  165 1   
   165  157  166 1   
   166  158  159 1   
   167  158  160 1   
   168  167  168 1   
   169  167  172 1   
   170  168  169 1   
   171  168  170 1   
   172  168  171 1   
   173  174  175 1   
   174  174  176 1   
@<TRIPOS>SUBSTRUCTURE
     1 MOL         1 TEMP              0 ****  ****    0 ROOT
