@<TRIPOS>MOLECULE
MOL
  189   185     1     0     0
SMALL
resp


@<TRIPOS>ATOM
      1 C1         -0.1530    3.1990    5.4130 c3        1 MOL     -0.425434
      2 C2         -0.6210    2.4330    4.1280 c         1 MOL      0.692007
      3 O1          0.1620    2.4260    3.1620 o         1 MOL     -0.561382
      4 H1          0.7470    2.7290    5.8080 hc        1 MOL      0.109182
      5 H2          0.0610    4.2380    5.1600 hc        1 MOL      0.109182
      6 H3         -0.9410    3.1630    6.1650 hc        1 MOL      0.109182
      7 N1         -1.7920    1.7930    4.0040 n         1 MOL     -0.609595
      8 C3         -2.2270    1.4570    2.6220 c3        1 MOL      0.082153
      9 C4         -2.6680    2.8060    2.0230 c         1 MOL      0.463201
     10 O2         -3.5680    3.4340    2.5760 o         1 MOL     -0.608995
     11 C5         -3.4160    0.4600    2.6060 c3        1 MOL     -0.092213
     12 C6         -3.9660    0.2030    1.2450 c         1 MOL      0.721706
     13 O3         -3.1660    0.3490    0.3040 o         1 MOL     -0.704178
     14 O4         -5.2160    0.0210    1.1430 o         1 MOL     -0.704178
     15 H4         -2.4660    1.5970    4.7290 hn        1 MOL      0.343534
     16 H5         -1.3910    1.0820    2.0400 h1        1 MOL      0.040530
     17 H6         -4.1600    0.7940    3.3380 hc        1 MOL      0.030387
     18 H7         -2.9740   -0.4680    2.9550 hc        1 MOL      0.030387
     19 N2         -2.2180    3.2570    0.8500 n         1 MOL      0.089002
     20 C7         -2.6110    4.6350    0.3730 c3        1 MOL     -0.039800
     21 C8         -3.8330    4.5670   -0.6050 c         1 MOL      0.493700
     22 O5         -4.4600    5.5630   -0.9610 o         1 MOL     -0.566003
     23 C9         -1.3310    5.2720   -0.2490 c3        1 MOL      0.104112
     24 C10        -0.1210    5.3040    0.7080 c3        1 MOL      0.090510
     25 C11        -0.4820    5.8230    2.0790 c3        1 MOL     -0.265890
     26 C12        -0.9900    7.2970    1.9610 c3        1 MOL      0.145505
     27 N3         -1.2560    7.9110    3.2650 n4        1 MOL     -0.385595
     28 H8         -1.5100    2.7080    0.3840 hn        1 MOL      0.109539
     29 H9         -2.9450    5.2700    1.1900 h1        1 MOL      0.035085
     30 H10        -1.5540    6.3390   -0.3340 hc        1 MOL     -0.025206
     31 H11        -1.0950    4.8370   -1.2200 hc        1 MOL     -0.025206
     32 H12         0.6350    5.9650    0.2880 hc        1 MOL     -0.007461
     33 H13         0.3410    4.3080    0.6970 hc        1 MOL     -0.007461
     34 H14         0.3570    5.6010    2.7460 hc        1 MOL      0.074429
     35 H15        -1.2140    5.1200    2.4860 hc        1 MOL      0.074429
     36 H16        -1.9390    7.2880    1.4160 hx        1 MOL      0.057085
     37 H17        -0.2510    7.8610    1.3880 hx        1 MOL      0.057085
     38 H18        -1.8210    8.7480    3.1600 hn        1 MOL      0.332195
     39 H19        -1.7110    7.2550    3.8830 hn        1 MOL      0.332195
     40 H20        -0.4140    8.1490    3.7740 hn        1 MOL      0.332195
     41 N4         -4.2070    3.3440   -0.9730 n         1 MOL     -0.314821
     42 C13        -5.0670    3.1290   -2.1670 c3        1 MOL      0.095727
     43 C14        -6.4640    2.6730   -1.8900 c         1 MOL      0.454319
     44 O6         -7.4060    3.1430   -2.4600 o         1 MOL     -0.537562
     45 C15        -4.3520    2.2820   -3.2380 c3        1 MOL      0.128688
     46 C16        -2.8170    2.3950   -3.3380 c         1 MOL      0.611704
     47 O7         -2.4160    3.2890   -4.0870 o         1 MOL     -0.654404
     48 O8         -2.0310    1.6140   -2.7460 o         1 MOL     -0.654404
     49 H21        -3.7430    2.5760   -0.4980 hn        1 MOL      0.047804
     50 H22        -5.1680    4.0390   -2.7500 h1        1 MOL      0.069372
     51 H23        -4.8330    2.6830   -4.1290 hc        1 MOL     -0.059491
     52 H24        -4.6710    1.2470   -3.0930 hc        1 MOL     -0.059491
     53 N5         -6.5280    1.7920   -0.9040 n         1 MOL     -0.272678
     54 C17        -7.7710    1.0420   -0.5910 c3        1 MOL     -0.196744
     55 C18        -7.8560   -0.4040   -1.0840 c         1 MOL      0.537870
     56 O9         -8.8370   -1.0650   -0.6980 o         1 MOL     -0.560406
     57 H25        -5.7390    1.6520   -0.2770 hn        1 MOL      0.264823
     58 H26        -8.7010    1.4650   -0.9810 h1        1 MOL      0.120855
     59 H27        -7.8960    0.9480    0.4840 h1        1 MOL      0.120855
     60 N6         -6.8400   -0.9440   -1.8170 n         1 MOL     -0.417011
     61 C19        -6.7410   -2.4160   -2.0590 c3        1 MOL     -0.019038
     62 C20        -6.6790   -3.1930   -0.7420 c         1 MOL      0.402183
     63 O10        -6.9660   -4.4210   -0.7400 o         1 MOL     -0.524173
     64 C21        -5.5140   -2.7540   -2.9500 c3        1 MOL     -0.166268
     65 C22        -4.1950   -2.1210   -2.5520 c         1 MOL      0.727024
     66 O11        -3.8060   -1.0120   -2.9820 o         1 MOL     -0.768464
     67 O12        -3.5630   -2.5710   -1.5670 o         1 MOL     -0.768464
     68 H28        -6.1240   -0.3020   -2.1270 hn        1 MOL      0.302848
     69 H29        -7.6000   -2.7520   -2.6420 h1        1 MOL      0.107991
     70 H30        -5.7840   -2.4950   -3.9790 hc        1 MOL      0.070646
     71 H31        -5.4140   -3.8290   -3.1020 hc        1 MOL      0.070646
     72 N7         -6.2710   -2.4780    0.3520 n         1 MOL     -0.090072
     73 C23        -6.0700   -3.1240    1.6400 c3        1 MOL     -0.039957
     74 C24        -4.8100   -4.0480    1.6290 c         1 MOL      0.622450
     75 O13        -4.7850   -4.9650    2.4500 o         1 MOL     -0.603760
     76 H32        -5.9940   -1.5170    0.2230 hn        1 MOL      0.225238
     77 H33        -6.9980   -3.5580    2.0060 h1        1 MOL      0.035573
     78 H34        -5.6840   -2.3350    2.2860 h1        1 MOL      0.035573
     79 N8         -3.7480   -3.7750    0.8520 n         1 MOL     -0.348728
     80 C25        -2.4600   -4.4180    0.9430 c3        1 MOL      0.017757
     81 C26        -1.2780   -3.5010    0.9820 c         1 MOL      0.660267
     82 O14        -1.3640   -2.3580    0.3720 o         1 MOL     -0.665177
     83 C27        -2.3410   -5.4600   -0.1920 c3        1 MOL      0.454348
     84 C28        -2.5910   -6.8840    0.3840 c3        1 MOL     -0.413254
     85 O15        -3.2530   -5.2120   -1.3400 oh        1 MOL     -0.614310
     86 H35        -3.8860   -3.0450    0.1750 hn        1 MOL      0.189475
     87 H36        -2.3960   -4.9910    1.8690 h1        1 MOL      0.031500
     88 H37        -1.3140   -5.3020   -0.5230 h1        1 MOL     -0.093580
     89 H38        -3.1760   -4.2670   -1.4550 ho        1 MOL      0.369376
     90 H39        -3.5170   -6.8680    0.9480 hc        1 MOL      0.107944
     91 H40        -2.7270   -7.5480   -0.4790 hc        1 MOL      0.107944
     92 H41        -1.7690   -7.1940    1.0220 hc        1 MOL      0.107944
     93 N9         -0.1300   -3.7880    1.6640 n         1 MOL     -0.680538
     94 C29         0.9840   -2.8590    1.8940 c3        1 MOL      0.026392
     95 C30         2.2230   -3.3640    1.1580 c         1 MOL      0.577703
     96 O16         2.6620   -4.5050    1.3740 o         1 MOL     -0.584877
     97 C31         1.2540   -2.5610    3.3750 c3        1 MOL     -0.063826
     98 C32         0.0740   -1.8510    3.9670 c3        1 MOL      0.252860
     99 C33         2.5310   -1.8010    3.6680 c3        1 MOL     -0.175422
    100 C34         0.1400   -1.4180    5.3990 c3        1 MOL     -0.302847
    101 H42        -0.0190   -4.7120    2.0660 hn        1 MOL      0.362423
    102 H43         0.7620   -1.8730    1.4740 h1        1 MOL      0.108667
    103 H44         1.3970   -3.5530    3.8110 hc        1 MOL      0.043520
    104 H45        -0.7700   -2.5260    4.0930 hc        1 MOL     -0.022602
    105 H46        -0.2540   -1.0500    3.3040 hc        1 MOL     -0.022602
    106 H47         2.4610   -0.7230    3.5210 hc        1 MOL      0.028799
    107 H48         2.7210   -1.8810    4.7340 hc        1 MOL      0.028799
    108 H49         3.3950   -2.1720    3.1230 hc        1 MOL      0.028799
    109 H50         0.4810   -2.2940    5.9370 hc        1 MOL      0.072125
    110 H51         0.9280   -0.6660    5.4540 hc        1 MOL      0.072125
    111 H52        -0.7980   -1.1170    5.8490 hc        1 MOL      0.072125
    112 N10         2.8270   -2.5520    0.3440 n         1 MOL     -0.110283
    113 C35         3.9810   -2.9100   -0.5180 c3        1 MOL     -0.154163
    114 C36         5.3400   -2.5230    0.1380 c         1 MOL      0.364725
    115 O17         5.2860   -1.9000    1.2050 o         1 MOL     -0.332118
    116 C37         3.7780   -2.1850   -1.8580 c3        1 MOL      0.222315
    117 C38         2.6260   -2.7380   -2.6130 c3        1 MOL     -0.358398
    118 O18         3.6680   -0.7730   -1.7120 oh        1 MOL     -0.666071
    119 H53         2.4110   -1.6450    0.2160 hn        1 MOL      0.105544
    120 H54         3.9080   -3.9840   -0.6660 h1        1 MOL      0.103856
    121 H55         4.7510   -2.3320   -2.3400 h1        1 MOL      0.018791
    122 H56         2.7350   -0.6030   -1.8480 ho        1 MOL      0.419848
    123 H57         2.8580   -3.7750   -2.8670 hc        1 MOL      0.113618
    124 H58         1.7460   -2.7620   -1.9730 hc        1 MOL      0.113618
    125 H59         2.4640   -2.2320   -3.5690 hc        1 MOL      0.113618
    126 N11         6.4950   -2.7790   -0.4790 n         1 MOL     -0.299083
    127 C39         7.7290   -2.1800    0.0010 c3        1 MOL     -0.082248
    128 C40         7.7430   -0.6810   -0.0040 c         1 MOL      0.354185
    129 O19         8.2540   -0.1050    0.9750 o         1 MOL     -0.473456
    130 C41         8.9400   -2.6840   -0.8660 c3        1 MOL      0.190977
    131 C42         9.3570   -4.1300   -0.4620 c3        1 MOL     -0.372469
    132 O20         8.5380   -2.6620   -2.2330 oh        1 MOL     -0.617687
    133 H60         6.4950   -3.2670   -1.3640 hn        1 MOL      0.296112
    134 H61         7.7970   -2.3940    1.0690 h1        1 MOL      0.121594
    135 H62         9.7970   -2.0350   -0.6580 h1        1 MOL      0.077601
    136 H63         9.3670   -2.9910   -2.6150 ho        1 MOL      0.412711
    137 H64        10.3600   -4.2440   -0.8720 hc        1 MOL      0.111714
    138 H65         9.4530   -4.3520    0.5990 hc        1 MOL      0.111714
    139 H66         8.6310   -4.8080   -0.9100 hc        1 MOL      0.111714
    140 N12         7.0920   -0.1760   -0.9820 n         1 MOL     -0.276716
    141 C43         6.8770    1.2570   -1.2250 c3        1 MOL      0.032565
    142 C44         6.1550    1.8730   -0.0330 c         1 MOL      0.213787
    143 O21         6.6190    2.8780    0.5360 o         1 MOL     -0.481780
    144 C45         6.1370    1.5450   -2.5210 c3        1 MOL     -0.448428
    145 C46         6.2710    3.0380   -2.7850 c3        1 MOL      0.095100
    146 C47         6.0120    3.4390   -4.2650 c3        1 MOL     -0.044168
    147 C48         7.1930    2.9380   -5.0970 c3        1 MOL      0.067394
    148 N13         7.0260    3.3410   -6.5060 n4        1 MOL     -0.341830
    149 H67         6.6650   -0.7450   -1.6890 hn        1 MOL      0.276224
    150 H68         7.8520    1.7470   -1.2430 h1        1 MOL      0.123336
    151 H69         5.0550    1.4040   -2.5130 hc        1 MOL      0.140527
    152 H70         6.7290    0.9500   -3.2090 hc        1 MOL      0.140527
    153 H71         7.2120    3.5170   -2.5270 hc        1 MOL      0.036332
    154 H72         5.4890    3.4960   -2.1800 hc        1 MOL      0.036332
    155 H73         6.0220    4.5360   -4.3310 hc        1 MOL      0.045687
    156 H74         5.0000    3.1330   -4.5290 hc        1 MOL      0.045687
    157 H75         7.2610    1.8470   -5.1250 hx        1 MOL      0.068457
    158 H76         8.0960    3.3440   -4.6160 hx        1 MOL      0.068457
    159 H77         6.0960    3.0880   -6.8290 hn        1 MOL      0.296725
    160 H78         7.1180    4.3210   -6.7010 hn        1 MOL      0.296725
    161 H79         7.6140    2.8000   -7.1290 hn        1 MOL      0.296725
    162 N14         5.1270    1.1750    0.5090 n         1 MOL      0.010659
    163 C49         4.2380    1.6100    1.5560 c3        1 MOL     -0.174475
    164 C50         4.7400    1.2780    2.9170 c         1 MOL      0.466299
    165 O22         4.5660    2.1080    3.8020 o         1 MOL     -0.566990
    166 C51         2.8620    1.0130    1.3400 c3        1 MOL      0.055851
    167 C52         2.2060    1.5170    0.0750 c3        1 MOL     -0.118506
    168 C53         0.9180    0.8010   -0.3050 c         1 MOL      0.718438
    169 O23        -0.1750    1.4050   -0.2470 o         1 MOL     -0.714210
    170 O24         0.9720   -0.3860   -0.6780 o         1 MOL     -0.714210
    171 H80         4.9910    0.2720    0.0750 hn        1 MOL      0.293191
    172 H81         4.1590    2.6930    1.5320 h1        1 MOL      0.096072
    173 H82         2.1630    1.2650    2.1480 hc        1 MOL      0.063941
    174 H83         2.9990   -0.0520    1.2120 hc        1 MOL      0.063941
    175 H84         2.8760    1.4170   -0.7830 hc        1 MOL      0.022184
    176 H85         2.0070    2.5850    0.2210 hc        1 MOL      0.022184
    177 N15         5.4000    0.1550    3.1270 n         1 MOL     -0.004392
    178 C54         5.9300   -0.1560    4.3710 c3        1 MOL     -0.304289
    179 H86         6.5900   -1.0190    4.2800 h1        1 MOL      0.101127
    180 H87         6.4970    0.6960    4.7480 h1        1 MOL      0.101127
    181 H88         5.1210   -0.3890    5.0630 h1        1 MOL      0.101127
    182 H89         5.6380   -0.3860    2.3050 hn        1 MOL      0.089679
    183 Ca1        -1.6180   -0.5990   -1.4800 Ca        1 MOL      1.766012
    184 O25         0.1660   -0.2950   -3.8230 oh        1 MOL     -0.821765
    185 H90        -0.1470    0.4280   -4.3750 ho        1 MOL      0.393700
    186 H91         0.5080   -0.9330   -4.4380 ho        1 MOL      0.393700
    187 O26        -0.9560   -2.7720   -3.0160 oh        1 MOL     -0.821765
    188 H92        -0.2760   -3.3710   -3.3340 ho        1 MOL      0.393700
    189 H93        -1.7710   -3.1190   -3.3750 ho        1 MOL      0.393700
@<TRIPOS>BOND
     1    1    2 1   
     2    1    4 1   
     3    1    5 1   
     4    1    6 1   
     5    2    3 2   
     6    2    7 1   
     7    7    8 1   
     8    7   15 1   
     9    8    9 1   
    10    8   11 1   
    11    8   16 1   
    12    9   10 2   
    13    9   19 1   
    14   11   12 1   
    15   11   17 1   
    16   11   18 1   
    17   12   13 1   
    18   12   14 1   
    19   19   20 1   
    20   19   28 1   
    21   20   21 1   
    22   20   23 1   
    23   20   29 1   
    24   21   22 2   
    25   21   41 1   
    26   23   24 1   
    27   23   30 1   
    28   23   31 1   
    29   24   25 1   
    30   24   32 1   
    31   24   33 1   
    32   25   26 1   
    33   25   34 1   
    34   25   35 1   
    35   26   27 1   
    36   26   36 1   
    37   26   37 1   
    38   27   38 1   
    39   27   39 1   
    40   27   40 1   
    41   41   42 1   
    42   41   49 1   
    43   42   43 1   
    44   42   45 1   
    45   42   50 1   
    46   43   44 2   
    47   43   53 1   
    48   45   46 1   
    49   45   51 1   
    50   45   52 1   
    51   46   47 1   
    52   46   48 1   
    53   53   54 1   
    54   53   57 1   
    55   54   55 1   
    56   54   58 1   
    57   54   59 1   
    58   55   56 2   
    59   55   60 1   
    60   60   61 1   
    61   60   68 1   
    62   61   62 1   
    63   61   64 1   
    64   61   69 1   
    65   62   63 2   
    66   62   72 1   
    67   64   65 1   
    68   64   70 1   
    69   64   71 1   
    70   65   66 1   
    71   65   67 1   
    72   72   73 1   
    73   72   76 1   
    74   73   74 1   
    75   73   77 1   
    76   73   78 1   
    77   74   75 2   
    78   74   79 1   
    79   79   80 1   
    80   79   86 1   
    81   80   81 1   
    82   80   83 1   
    83   80   87 1   
    84   81   82 2   
    85   81   93 1   
    86   83   84 1   
    87   83   85 1   
    88   83   88 1   
    89   84   90 1   
    90   84   91 1   
    91   84   92 1   
    92   85   89 1   
    93   93   94 1   
    94   93  101 1   
    95   94   95 1   
    96   94   97 1   
    97   94  102 1   
    98   95   96 2   
    99   95  112 1   
   100   97   98 1   
   101   97   99 1   
   102   97  103 1   
   103   98  100 1   
   104   98  104 1   
   105   98  105 1   
   106   99  106 1   
   107   99  107 1   
   108   99  108 1   
   109  100  109 1   
   110  100  110 1   
   111  100  111 1   
   112  112  113 1   
   113  112  119 1   
   114  113  114 1   
   115  113  116 1   
   116  113  120 1   
   117  114  115 2   
   118  114  126 1   
   119  116  117 1   
   120  116  118 1   
   121  116  121 1   
   122  117  123 1   
   123  117  124 1   
   124  117  125 1   
   125  118  122 1   
   126  126  127 1   
   127  126  133 1   
   128  127  128 1   
   129  127  130 1   
   130  127  134 1   
   131  128  129 2   
   132  128  140 1   
   133  130  131 1   
   134  130  132 1   
   135  130  135 1   
   136  131  137 1   
   137  131  138 1   
   138  131  139 1   
   139  132  136 1   
   140  140  141 1   
   141  140  149 1   
   142  141  142 1   
   143  141  144 1   
   144  141  150 1   
   145  142  143 2   
   146  142  162 1   
   147  144  145 1   
   148  144  151 1   
   149  144  152 1   
   150  145  146 1   
   151  145  153 1   
   152  145  154 1   
   153  146  147 1   
   154  146  155 1   
   155  146  156 1   
   156  147  148 1   
   157  147  157 1   
   158  147  158 1   
   159  148  159 1   
   160  148  160 1   
   161  148  161 1   
   162  162  163 1   
   163  162  171 1   
   164  163  164 1   
   165  163  166 1   
   166  163  172 1   
   167  164  165 2   
   168  164  177 1   
   169  166  167 1   
   170  166  173 1   
   171  166  174 1   
   172  167  168 1   
   173  167  175 1   
   174  167  176 1   
   175  168  169 1   
   176  168  170 1   
   177  177  178 1   
   178  177  182 1   
   179  178  179 1   
   180  178  180 1   
   181  178  181 1   
   182  184  185 1   
   183  184  186 1   
   184  187  188 1   
   185  187  189 1   
@<TRIPOS>SUBSTRUCTURE
     1 MOL         1 TEMP              0 ****  ****    0 ROOT
