@<TRIPOS>MOLECULE
MOL
  189   185     1     0     0
SMALL
resp


@<TRIPOS>ATOM
      1 C1         -0.5010    3.6810    5.5880 c3        1 MOL     -0.581005
      2 C2         -0.7400    2.9170    4.2350 c         1 MOL      0.833827
      3 O1          0.1580    2.5340    3.5560 o         1 MOL     -0.582417
      4 H1         -0.3110    4.7340    5.3800 hc        1 MOL      0.145173
      5 H2         -1.3850    3.5890    6.2190 hc        1 MOL      0.145173
      6 H3          0.3580    3.2510    6.1010 hc        1 MOL      0.145173
      7 N1         -2.0100    2.5950    3.8560 n         1 MOL     -0.688508
      8 C3         -2.3310    2.1340    2.5150 c3        1 MOL      0.284142
      9 C4         -2.6740    3.1330    1.4790 c         1 MOL      0.254424
     10 O2         -3.6640    3.8210    1.4230 o         1 MOL     -0.503752
     11 C5         -3.4790    1.2500    2.6690 c3        1 MOL     -0.087823
     12 C6         -3.8870    0.5060    1.3530 c         1 MOL      0.708649
     13 O3         -4.9800   -0.0970    1.4260 o         1 MOL     -0.651069
     14 O4         -3.2630    0.6850    0.2450 o         1 MOL     -0.651069
     15 H4         -2.7210    2.5010    4.5770 hn        1 MOL      0.328644
     16 H5         -1.4590    1.6380    2.0890 h1        1 MOL      0.006698
     17 H6         -4.3190    1.8410    3.0310 hc        1 MOL      0.020034
     18 H7         -3.2880    0.5030    3.4450 hc        1 MOL      0.020034
     19 N2         -1.6360    3.4700    0.6630 n         1 MOL      0.000995
     20 C7         -1.4850    4.7840   -0.0070 c3        1 MOL     -0.113218
     21 C8         -2.1870    4.7190   -1.3530 c         1 MOL      0.419500
     22 O5         -2.2830    5.7820   -2.0390 o         1 MOL     -0.564878
     23 C9          0.0440    5.1430   -0.1530 c3        1 MOL     -0.056696
     24 C10         0.8350    5.2770    1.1880 c3        1 MOL     -0.090208
     25 C11         0.5800    6.7090    1.6750 c3        1 MOL     -0.122772
     26 C12         0.9900    6.9900    3.1870 c3        1 MOL      0.093284
     27 N3          0.4730    8.2390    3.6440 n4        1 MOL     -0.376163
     28 H8         -0.8470    2.8440    0.5960 hn        1 MOL      0.186870
     29 H9         -1.9730    5.5520    0.5830 h1        1 MOL      0.102869
     30 H10        -0.0060    6.1430   -0.5870 hc        1 MOL      0.045021
     31 H11         0.5510    4.4170   -0.7910 hc        1 MOL      0.045021
     32 H12         1.8540    5.0910    0.8780 hc        1 MOL      0.049004
     33 H13         0.4600    4.5880    1.9500 hc        1 MOL      0.049004
     34 H14        -0.4810    6.9960    1.6140 hc        1 MOL      0.072324
     35 H15         1.1950    7.3640    1.0600 hc        1 MOL      0.072324
     36 H16         2.0710    7.0790    3.2560 hx        1 MOL      0.068845
     37 H17         0.6270    6.1810    3.8120 hx        1 MOL      0.068845
     38 H18         0.8720    8.5210    4.5270 hn        1 MOL      0.327226
     39 H19         0.6570    9.0470    3.0790 hn        1 MOL      0.327226
     40 H20        -0.5140    8.1000    3.7560 hn        1 MOL      0.327226
     41 N4         -2.7830    3.5750   -1.8110 n         1 MOL     -0.044958
     42 C13        -3.6940    3.5790   -2.9650 c3        1 MOL      0.002816
     43 C14        -5.0690    2.8810   -2.7210 c         1 MOL      0.388625
     44 O6         -5.9970    3.1680   -3.5030 o         1 MOL     -0.516008
     45 C15        -2.9920    2.9610   -4.1930 c3        1 MOL     -0.253147
     46 C16        -2.2800    1.6330   -3.9650 c         1 MOL      0.924391
     47 O7         -1.3710    1.3180   -4.7100 o         1 MOL     -0.773764
     48 O8         -2.6810    0.8280   -3.1050 o         1 MOL     -0.773764
     49 H21        -2.7120    2.7360   -1.2550 hn        1 MOL     -0.177155
     50 H22        -3.8570    4.6420   -3.1520 h1        1 MOL      0.099875
     51 H23        -2.2360    3.6350   -4.5900 hc        1 MOL      0.056502
     52 H24        -3.8210    2.9010   -4.8990 hc        1 MOL      0.056502
     53 N5         -5.2030    2.0470   -1.6800 n         1 MOL     -0.113615
     54 C17        -6.5430    1.7140   -1.1510 c3        1 MOL     -0.210551
     55 C18        -7.0930    0.3670   -1.4460 c         1 MOL      0.732697
     56 O9         -8.2250    0.3070   -1.9060 o         1 MOL     -0.610553
     57 H25        -4.4250    1.8570   -1.0650 hn        1 MOL      0.260098
     58 H26        -7.2980    2.4260   -1.4760 h1        1 MOL      0.090879
     59 H27        -6.4780    1.8470   -0.0640 h1        1 MOL      0.090879
     60 N6         -6.3740   -0.6770   -1.1230 n         1 MOL     -0.518819
     61 C19        -6.7410   -2.0380   -1.5480 c3        1 MOL      0.190209
     62 C20        -6.7890   -2.8960   -0.2720 c         1 MOL      0.424398
     63 O10        -7.1360   -4.0670   -0.3540 o         1 MOL     -0.540274
     64 C21        -5.7570   -2.5860   -2.5820 c3        1 MOL     -0.247918
     65 C22        -4.2940   -2.4400   -2.2100 c         1 MOL      0.784143
     66 O11        -3.5330   -2.1180   -3.1630 o         1 MOL     -0.710623
     67 O12        -3.9030   -2.4650   -0.9950 o         1 MOL     -0.710623
     68 H28        -5.4530   -0.5430   -0.7290 hn        1 MOL      0.126267
     69 H29        -7.7510   -2.1080   -1.9720 h1        1 MOL      0.087666
     70 H30        -6.0220   -1.9630   -3.4490 hc        1 MOL      0.070771
     71 H31        -5.9800   -3.6270   -2.8130 hc        1 MOL      0.070771
     72 N7         -6.5910   -2.3330    0.9360 n         1 MOL     -0.400024
     73 C23        -6.5900   -3.1650    2.1380 c3        1 MOL     -0.004008
     74 C24        -5.1670   -3.7000    2.4790 c         1 MOL      0.448590
     75 O13        -5.1450   -4.5890    3.3560 o         1 MOL     -0.579665
     76 H32        -6.2250   -1.4070    1.0510 hn        1 MOL      0.301994
     77 H33        -7.2270   -4.0390    2.2130 h1        1 MOL      0.082928
     78 H34        -6.9150   -2.5280    2.9670 h1        1 MOL      0.082928
     79 N8         -4.1200   -3.3340    1.7860 n         1 MOL     -0.226437
     80 C25        -2.7610   -3.9930    1.8200 c3        1 MOL     -0.241934
     81 C26        -1.5680   -3.1120    1.5150 c         1 MOL      0.743414
     82 O14        -1.6410   -2.1610    0.7800 o         1 MOL     -0.706375
     83 C27        -2.6550   -5.2230    0.8150 c3        1 MOL      0.682772
     84 C28        -3.3250   -6.4290    1.2690 c3        1 MOL     -0.350635
     85 O15        -3.2190   -5.0240   -0.4560 oh        1 MOL     -0.710793
     86 H35        -4.2480   -2.7130    0.9940 hn        1 MOL      0.158060
     87 H36        -2.6880   -4.4340    2.8180 h1        1 MOL      0.119486
     88 H37        -1.6200   -5.5300    0.6640 h1        1 MOL     -0.084381
     89 H38        -3.6300   -4.1640   -0.4260 ho        1 MOL      0.454722
     90 H39        -4.3960   -6.2580    1.2910 hc        1 MOL      0.072176
     91 H40        -3.1000   -7.3290    0.6930 hc        1 MOL      0.072176
     92 H41        -2.9260   -6.5470    2.2810 hc        1 MOL      0.072176
     93 N9         -0.4660   -3.4630    2.2200 n         1 MOL     -0.719906
     94 C29         0.7910   -2.6480    2.2220 c3        1 MOL      0.261426
     95 C30         1.9210   -3.4120    1.4600 c         1 MOL      0.398761
     96 O16         2.2630   -4.5390    1.7720 o         1 MOL     -0.531670
     97 C31         1.2210   -2.2740    3.7300 c3        1 MOL      0.102989
     98 C32         0.0320   -1.6940    4.5630 c3        1 MOL     -0.043109
     99 C33         2.3360   -1.2280    3.6120 c3        1 MOL     -0.182817
    100 C34         0.4520   -1.4020    5.9970 c3        1 MOL     -0.110228
    101 H42        -0.5000   -4.3360    2.7350 hn        1 MOL      0.309225
    102 H43         0.5210   -1.6990    1.7510 h1        1 MOL      0.108071
    103 H44         1.6770   -3.1500    4.1840 hc        1 MOL     -0.005073
    104 H45        -0.7660   -2.4240    4.6450 hc        1 MOL      0.029389
    105 H46        -0.2760   -0.7930    4.0320 hc        1 MOL      0.029389
    106 H47         2.7670   -1.0160    4.5890 hc        1 MOL      0.036972
    107 H48         3.2210   -1.5720    3.0780 hc        1 MOL      0.036972
    108 H49         1.9160   -0.3410    3.1230 hc        1 MOL      0.036972
    109 H50         1.3200   -0.7420    6.0870 hc        1 MOL      0.029219
    110 H51        -0.3630   -0.8980    6.5150 hc        1 MOL      0.029219
    111 H52         0.6410   -2.3330    6.5380 hc        1 MOL      0.029219
    112 N10         2.6120   -2.6180    0.6110 n         1 MOL     -0.065518
    113 C35         3.7840   -3.0550   -0.1890 c3        1 MOL     -0.006069
    114 C36         5.1210   -2.6050    0.4170 c         1 MOL      0.375329
    115 O17         5.1770   -1.8710    1.4080 o         1 MOL     -0.379930
    116 C37         3.6430   -2.5220   -1.6540 c3        1 MOL      0.213696
    117 C38         2.5050   -3.0830   -2.5010 c3        1 MOL     -0.197642
    118 O18         3.4940   -1.1650   -1.6110 oh        1 MOL     -0.585582
    119 H53         2.2380   -1.6910    0.4630 hn        1 MOL     -0.047672
    120 H54         3.9130   -4.1410   -0.2010 h1        1 MOL      0.063162
    121 H55         4.5740   -2.7860   -2.1680 h1        1 MOL      0.044286
    122 H56         2.5570   -0.9410   -1.6090 ho        1 MOL      0.341333
    123 H57         2.6940   -2.7890   -3.5330 hc        1 MOL      0.059134
    124 H58         2.6240   -4.1710   -2.4770 hc        1 MOL      0.059134
    125 H59         1.5120   -2.7940   -2.1530 hc        1 MOL      0.059134
    126 N11         6.1800   -3.0910   -0.2780 n         1 MOL     -0.319923
    127 C39         7.5210   -2.5940   -0.2400 c3        1 MOL     -0.115354
    128 C40         7.6340   -1.1290   -0.4390 c         1 MOL      0.395070
    129 O19         8.5130   -0.5500    0.1940 o         1 MOL     -0.521309
    130 C41         8.3320   -3.2220   -1.3710 c3        1 MOL      0.172166
    131 C42         8.7490   -4.7060   -1.1030 c3        1 MOL     -0.363709
    132 O20         7.5400   -3.1930   -2.5260 oh        1 MOL     -0.640737
    133 H60         5.9340   -3.6630   -1.0810 hn        1 MOL      0.271651
    134 H61         7.9810   -2.9400    0.6920 h1        1 MOL      0.153080
    135 H62         9.2980   -2.7760   -1.5840 h1        1 MOL      0.096196
    136 H63         8.0110   -3.7420   -3.1530 ho        1 MOL      0.430769
    137 H64         9.5410   -4.9750   -1.8150 hc        1 MOL      0.109134
    138 H65         9.2390   -4.8350   -0.1360 hc        1 MOL      0.109134
    139 H66         7.9340   -5.4260   -1.2030 hc        1 MOL      0.109134
    140 N12         6.7030   -0.5020   -1.1490 n         1 MOL     -0.055444
    141 C43         6.8030    0.9920   -1.4120 c3        1 MOL     -0.237212
    142 C44         5.9020    1.8780   -0.4990 c         1 MOL      0.529506
    143 O21         5.9140    3.1050   -0.5370 o         1 MOL     -0.546264
    144 C45         6.5270    1.2740   -2.8620 c3        1 MOL     -0.059120
    145 C46         5.0870    1.0700   -3.3330 c3        1 MOL      0.068162
    146 C47         5.0240    1.6900   -4.7550 c3        1 MOL     -0.003896
    147 C48         3.5020    1.5320   -5.1860 c3        1 MOL     -0.026681
    148 N13         3.4110    1.9770   -6.5840 n4        1 MOL     -0.173285
    149 H67         6.0370   -1.0480   -1.6850 hn        1 MOL      0.165633
    150 H68         7.8630    1.2260   -1.3800 h1        1 MOL      0.167744
    151 H69         7.0260    0.6090   -3.5790 hc        1 MOL      0.037391
    152 H70         6.7970    2.3070   -3.1180 hc        1 MOL      0.037391
    153 H71         4.3580    1.6330   -2.7550 hc        1 MOL      0.024519
    154 H72         4.8090    0.0230   -3.4300 hc        1 MOL      0.024519
    155 H73         5.6920    1.1550   -5.4380 hc        1 MOL      0.008231
    156 H74         5.3120    2.7380   -4.8500 hc        1 MOL      0.008231
    157 H75         2.9160    2.1050   -4.4670 hx        1 MOL      0.101171
    158 H76         3.2860    0.4610   -5.1170 hx        1 MOL      0.101171
    159 H77         4.1300    1.6120   -7.1900 hn        1 MOL      0.280486
    160 H78         2.5910    1.7250   -7.1140 hn        1 MOL      0.280486
    161 H79         3.5140    2.9750   -6.6830 hn        1 MOL      0.280486
    162 N14         5.1390    1.2550    0.3600 n         1 MOL     -0.304647
    163 C49         4.1240    1.8880    1.2260 c3        1 MOL     -0.023787
    164 C50         4.5490    1.7700    2.7820 c         1 MOL      0.437796
    165 O22         4.3760    2.6580    3.5800 o         1 MOL     -0.545542
    166 C51         2.7970    1.1400    0.9660 c3        1 MOL      0.126433
    167 C52         2.0300    1.5270   -0.3350 c3        1 MOL     -0.014087
    168 C53         0.6730    0.7490   -0.4660 c         1 MOL      0.598143
    169 O23         0.7350   -0.4800   -0.4040 o         1 MOL     -0.634641
    170 O24        -0.4040    1.2710   -0.6380 o         1 MOL     -0.634641
    171 H80         5.2280    0.2460    0.3180 hn        1 MOL      0.143627
    172 H81         3.9550    2.9490    1.0250 h1        1 MOL      0.085181
    173 H82         2.1230    1.5530    1.7160 hc        1 MOL     -0.004975
    174 H83         2.9220    0.0760    1.1710 hc        1 MOL     -0.004975
    175 H84         2.5690    1.3150   -1.2480 hc        1 MOL      0.014201
    176 H85         2.0110    2.6180   -0.3940 hc        1 MOL      0.014201
    177 N15         5.2060    0.6530    3.0910 n         1 MOL     -0.102886
    178 C54         5.7680    0.3420    4.3390 c3        1 MOL     -0.266652
    179 H86         5.8580    1.2510    4.9330 h1        1 MOL      0.101703
    180 H87         5.1260   -0.3690    4.8600 h1        1 MOL      0.101703
    181 H88         6.7550   -0.0970    4.1940 h1        1 MOL      0.101703
    182 H89         5.4450   -0.0270    2.3780 hn        1 MOL      0.194934
    183 Ca1        -1.9040   -0.8660   -1.4390 Ca        1 MOL      1.771270
    184 O25        -0.1280   -0.5820   -3.4180 oh        1 MOL     -0.890822
    185 H90         0.2530   -1.1950   -4.0490 ho        1 MOL      0.407594
    186 H91        -0.6490    0.0190   -3.9530 ho        1 MOL      0.407594
    187 O26        -0.8920   -3.2860   -2.0850 oh        1 MOL     -0.890822
    188 H92        -1.3650   -3.9500   -1.5910 ho        1 MOL      0.407594
    189 H93        -0.5250   -3.7490   -2.8340 ho        1 MOL      0.407594
@<TRIPOS>BOND
     1    1    2 1   
     2    1    4 1   
     3    1    5 1   
     4    1    6 1   
     5    2    3 2   
     6    2    7 1   
     7    7    8 1   
     8    7   15 1   
     9    8    9 1   
    10    8   11 1   
    11    8   16 1   
    12    9   10 2   
    13    9   19 1   
    14   11   12 1   
    15   11   17 1   
    16   11   18 1   
    17   12   13 1   
    18   12   14 1   
    19   19   20 1   
    20   19   28 1   
    21   20   21 1   
    22   20   23 1   
    23   20   29 1   
    24   21   22 2   
    25   21   41 1   
    26   23   24 1   
    27   23   30 1   
    28   23   31 1   
    29   24   25 1   
    30   24   32 1   
    31   24   33 1   
    32   25   26 1   
    33   25   34 1   
    34   25   35 1   
    35   26   27 1   
    36   26   36 1   
    37   26   37 1   
    38   27   38 1   
    39   27   39 1   
    40   27   40 1   
    41   41   42 1   
    42   41   49 1   
    43   42   43 1   
    44   42   45 1   
    45   42   50 1   
    46   43   44 2   
    47   43   53 1   
    48   45   46 1   
    49   45   51 1   
    50   45   52 1   
    51   46   47 1   
    52   46   48 1   
    53   53   54 1   
    54   53   57 1   
    55   54   55 1   
    56   54   58 1   
    57   54   59 1   
    58   55   56 2   
    59   55   60 1   
    60   60   61 1   
    61   60   68 1   
    62   61   62 1   
    63   61   64 1   
    64   61   69 1   
    65   62   63 2   
    66   62   72 1   
    67   64   65 1   
    68   64   70 1   
    69   64   71 1   
    70   65   66 1   
    71   65   67 1   
    72   72   73 1   
    73   72   76 1   
    74   73   74 1   
    75   73   77 1   
    76   73   78 1   
    77   74   75 2   
    78   74   79 1   
    79   79   80 1   
    80   79   86 1   
    81   80   81 1   
    82   80   83 1   
    83   80   87 1   
    84   81   82 2   
    85   81   93 1   
    86   83   84 1   
    87   83   85 1   
    88   83   88 1   
    89   84   90 1   
    90   84   91 1   
    91   84   92 1   
    92   85   89 1   
    93   93   94 1   
    94   93  101 1   
    95   94   95 1   
    96   94   97 1   
    97   94  102 1   
    98   95   96 2   
    99   95  112 1   
   100   97   98 1   
   101   97   99 1   
   102   97  103 1   
   103   98  100 1   
   104   98  104 1   
   105   98  105 1   
   106   99  106 1   
   107   99  107 1   
   108   99  108 1   
   109  100  109 1   
   110  100  110 1   
   111  100  111 1   
   112  112  113 1   
   113  112  119 1   
   114  113  114 1   
   115  113  116 1   
   116  113  120 1   
   117  114  115 2   
   118  114  126 1   
   119  116  117 1   
   120  116  118 1   
   121  116  121 1   
   122  117  123 1   
   123  117  124 1   
   124  117  125 1   
   125  118  122 1   
   126  126  127 1   
   127  126  133 1   
   128  127  128 1   
   129  127  130 1   
   130  127  134 1   
   131  128  129 2   
   132  128  140 1   
   133  130  131 1   
   134  130  132 1   
   135  130  135 1   
   136  131  137 1   
   137  131  138 1   
   138  131  139 1   
   139  132  136 1   
   140  140  141 1   
   141  140  149 1   
   142  141  142 1   
   143  141  144 1   
   144  141  150 1   
   145  142  143 2   
   146  142  162 1   
   147  144  145 1   
   148  144  151 1   
   149  144  152 1   
   150  145  146 1   
   151  145  153 1   
   152  145  154 1   
   153  146  147 1   
   154  146  155 1   
   155  146  156 1   
   156  147  148 1   
   157  147  157 1   
   158  147  158 1   
   159  148  159 1   
   160  148  160 1   
   161  148  161 1   
   162  162  163 1   
   163  162  171 1   
   164  163  164 1   
   165  163  166 1   
   166  163  172 1   
   167  164  165 2   
   168  164  177 1   
   169  166  167 1   
   170  166  173 1   
   171  166  174 1   
   172  167  168 1   
   173  167  175 1   
   174  167  176 1   
   175  168  169 1   
   176  168  170 1   
   177  177  178 1   
   178  177  182 1   
   179  178  179 1   
   180  178  180 1   
   181  178  181 1   
   182  184  185 1   
   183  184  186 1   
   184  187  188 1   
   185  187  189 1   
@<TRIPOS>SUBSTRUCTURE
     1 MOL         1 TEMP              0 ****  ****    0 ROOT
