@<TRIPOS>MOLECULE
MOL
  179   176     1     0     0
SMALL
resp


@<TRIPOS>ATOM
      1 C1          0.8610    4.1780    6.5070 c3        1 MOL     -0.339026
      2 C2          0.8460    3.6170    5.1030 c         1 MOL      0.777691
      3 O1          1.9060    3.2640    4.6100 o         1 MOL     -0.580662
      4 H1          0.8330    5.2660    6.4630 hc        1 MOL      0.081439
      5 H2         -0.0090    3.8150    7.0530 hc        1 MOL      0.081439
      6 H3          1.7700    3.8580    7.0170 hc        1 MOL      0.081439
      7 N1         -0.2980    3.6830    4.4360 n         1 MOL     -0.692730
      8 C3         -0.4720    3.4620    3.0080 c3        1 MOL      0.247864
      9 C4         -0.8490    4.7280    2.2040 c         1 MOL      0.538892
     10 O2         -1.3400    5.7230    2.7930 o         1 MOL     -0.560791
     11 C5         -1.4760    2.2820    2.8120 c3        1 MOL     -0.090794
     12 C6         -1.4350    1.4690    1.4880 c         1 MOL      0.900599
     13 O3         -0.5300    1.7490    0.6540 o         1 MOL     -0.839644
     14 O4         -2.1600    0.5110    1.4000 o         1 MOL     -0.839644
     15 H4         -1.1460    3.8510    4.9750 hn        1 MOL      0.321491
     16 H5          0.4740    3.1200    2.5940 h1        1 MOL      0.019082
     17 H6         -2.4850    2.6740    2.9310 hc        1 MOL      0.017611
     18 H7         -1.2940    1.5340    3.5810 hc        1 MOL      0.017611
     19 N2         -0.7890    4.7340    0.8790 n         1 MOL     -0.478941
     20 C7         -1.0860    5.8690   -0.0110 c3        1 MOL      0.239319
     21 C8         -2.4610    5.8110   -0.7480 c         1 MOL      0.331574
     22 O5         -2.7820    6.8230   -1.4220 o         1 MOL     -0.543577
     23 C9          0.0580    6.0290   -1.1050 c3        1 MOL     -0.303483
     24 C10         0.1510    4.8150   -2.1090 c3        1 MOL      0.016662
     25 C11         1.3630    4.8770   -2.9850 c3        1 MOL     -0.064686
     26 C12         1.3030    4.1530   -4.3310 c3        1 MOL     -0.148597
     27 N3          0.4540    2.8580   -4.4130 n4        1 MOL     -0.240798
     28 H8         -0.4880    3.9180    0.3530 hn        1 MOL      0.257084
     29 H9         -1.1880    6.7810    0.5690 h1        1 MOL      0.080110
     30 H10         0.9590    6.0730   -0.4990 hc        1 MOL      0.089673
     31 H11        -0.0760    6.9640   -1.6550 hc        1 MOL      0.089673
     32 H12        -0.7010    4.9670   -2.7740 hc        1 MOL      0.093521
     33 H13         0.0430    3.8690   -1.5720 hc        1 MOL      0.093521
     34 H14         2.2050    4.4630   -2.4320 hc        1 MOL      0.059853
     35 H15         1.5620    5.9220   -3.2310 hc        1 MOL      0.059853
     36 H16         2.3100    3.9480   -4.6720 hx        1 MOL      0.104995
     37 H17         0.9000    4.9090   -5.0040 hx        1 MOL      0.104995
     38 H18         0.8530    2.2130   -3.7510 hn        1 MOL      0.281361
     39 H19        -0.4890    3.1080   -4.1450 hn        1 MOL      0.281361
     40 H20         0.5920    2.4680   -5.3290 hn        1 MOL      0.281361
     41 N4         -3.1470    4.6910   -0.6400 n         1 MOL     -0.123882
     42 C13        -4.4160    4.3740   -1.3340 c3        1 MOL     -0.007552
     43 C14        -5.2380    3.5480   -0.3410 c         1 MOL      0.516463
     44 O6         -4.8660    3.3890    0.8250 o         1 MOL     -0.462115
     45 C15        -4.0450    3.6360   -2.6740 c3        1 MOL     -0.211626
     46 C16        -3.0540    2.4860   -2.5240 c         1 MOL      0.800370
     47 O7         -3.1230    1.6540   -1.5520 o         1 MOL     -0.765023
     48 O8         -2.1560    2.4040   -3.4020 o         1 MOL     -0.765023
     49 H21        -2.6990    4.0500   -0.0090 hn        1 MOL      0.093173
     50 H22        -4.9420    5.2890   -1.5860 h1        1 MOL      0.098187
     51 H23        -3.6450    4.3530   -3.3900 hc        1 MOL      0.051148
     52 H24        -4.9980    3.2360   -3.0370 hc        1 MOL      0.051148
     53 N5         -6.4270    3.1130   -0.8080 n         1 MOL     -0.492254
     54 C17        -7.4230    2.3950   -0.0740 c3        1 MOL     -0.079384
     55 C18        -7.2040    0.9110   -0.0060 c         1 MOL      0.509436
     56 O9         -8.0470    0.3350    0.6540 o         1 MOL     -0.556833
     57 H25        -6.5370    3.1340   -1.8120 hn        1 MOL      0.295618
     58 H26        -8.4390    2.6410   -0.3980 h1        1 MOL      0.120239
     59 H27        -7.3390    2.7220    0.9620 h1        1 MOL      0.120239
     60 N6         -6.2410    0.3070   -0.7140 n         1 MOL     -0.349376
     61 C19        -6.3650   -1.1090   -1.0930 c3        1 MOL      0.123788
     62 C20        -6.3280   -2.1920    0.0280 c         1 MOL      0.368447
     63 O10        -6.6940   -3.2940   -0.1410 o         1 MOL     -0.477587
     64 C21        -5.4270   -1.4200   -2.2780 c3        1 MOL     -0.599883
     65 C22        -4.1250   -2.0920   -1.7840 c         1 MOL      0.668674
     66 N7         -3.4790   -2.8830   -2.5490 n         1 MOL     -0.385518
     67 O11        -3.5220   -1.8360   -0.7210 o         1 MOL     -0.636861
     68 H28        -5.5360    0.8570   -1.1680 hn        1 MOL      0.243823
     69 H29        -7.3640   -1.1910   -1.5380 h1        1 MOL      0.097975
     70 H30        -5.3300   -0.5000   -2.8580 hc        1 MOL      0.179854
     71 H31        -5.9190   -2.1160   -2.9480 hc        1 MOL      0.179854
     72 H32        -3.9830   -3.2580   -3.3460 hn        1 MOL      0.257118
     73 H33        -2.6180   -3.2680   -2.1730 hn        1 MOL      0.257118
     74 N8         -5.8240   -1.7350    1.2070 n         1 MOL     -0.097970
     75 C23        -5.7300   -2.4680    2.5000 c3        1 MOL     -0.271813
     76 C24        -4.5180   -3.4050    2.7160 c         1 MOL      0.571158
     77 O12        -4.5080   -4.1100    3.7060 o         1 MOL     -0.556187
     78 H34        -5.4990   -0.7900    1.1790 hn        1 MOL      0.218520
     79 H35        -6.6230   -3.0560    2.7280 h1        1 MOL      0.133296
     80 H36        -5.7180   -1.7060    3.2690 h1        1 MOL      0.133296
     81 N9         -3.5160   -3.4580    1.8350 n         1 MOL     -0.258225
     82 C25        -2.2030   -4.0210    2.0910 c3        1 MOL     -0.026727
     83 C26        -1.0710   -3.1290    1.6790 c         1 MOL      0.709711
     84 O13        -1.1820   -2.2700    0.8500 o         1 MOL     -0.536225
     85 C27        -2.1370   -5.4100    1.5110 c3        1 MOL     -0.093275
     86 C28        -2.2150   -5.5230    0.0190 ca        1 MOL     -0.121911
     87 C29        -1.0330   -5.4960   -0.6890 ca        1 MOL      0.057852
     88 C30        -3.4170   -5.7300   -0.6440 ca        1 MOL      0.057852
     89 C31        -0.9860   -5.8240   -2.0670 ca        1 MOL     -0.464276
     90 C32        -3.4450   -5.8910   -2.0510 ca        1 MOL     -0.464276
     91 C33        -2.2530   -6.0610   -2.7000 ca        1 MOL      0.474394
     92 O14        -2.2930   -6.2520   -4.0360 oh        1 MOL     -0.512807
     93 H37        -3.5910   -2.9760    0.9530 hn        1 MOL      0.195426
     94 H38        -2.0400   -4.1850    3.1480 h1        1 MOL      0.078816
     95 H39        -2.9660   -5.9180    2.0140 hc        1 MOL      0.062272
     96 H40        -1.2170   -5.9140    1.8200 hc        1 MOL      0.062272
     97 H41        -0.0680   -5.3090   -0.2380 ha        1 MOL      0.103162
     98 H42        -4.3040   -5.6350   -0.0360 ha        1 MOL      0.103162
     99 H43        -0.1390   -5.7970   -2.7340 ha        1 MOL      0.189201
    100 H44        -4.3920   -5.9330   -2.5620 ha        1 MOL      0.189201
    101 H45        -1.4030   -6.3470   -4.3650 ho        1 MOL      0.352978
    102 N10         0.1330   -3.2550    2.3050 n         1 MOL     -0.652784
    103 C34         1.2980   -2.3690    2.1740 c3        1 MOL     -0.006621
    104 C35         2.4580   -3.3400    1.5670 c         1 MOL      0.655813
    105 O15         2.4920   -4.5560    1.7750 o         1 MOL     -0.566385
    106 C36         1.6770   -1.6220    3.4630 c3        1 MOL     -0.020569
    107 C37         1.8690   -2.6020    4.6050 c3        1 MOL      0.076426
    108 C38         0.5470   -0.6210    3.6810 c3        1 MOL     -0.059854
    109 C39         2.3410   -1.9140    5.8710 c3        1 MOL     -0.275791
    110 H46         0.2280   -4.1060    2.8540 hn        1 MOL      0.303720
    111 H47         1.0890   -1.6040    1.4300 h1        1 MOL      0.138211
    112 H48         2.6530   -1.1400    3.4270 hc        1 MOL      0.049591
    113 H49         2.6330   -3.2930    4.2560 hc        1 MOL      0.015511
    114 H50         0.9720   -3.1650    4.8600 hc        1 MOL      0.015511
    115 H51        -0.4480   -1.0560    3.7630 hc        1 MOL      0.031199
    116 H52         0.7360    0.0730    4.5080 hc        1 MOL      0.031199
    117 H53         0.4600   -0.0470    2.7580 hc        1 MOL      0.031199
    118 H54         1.5300   -1.4610    6.4380 hc        1 MOL      0.068484
    119 H55         2.9460   -2.6850    6.3540 hc        1 MOL      0.068484
    120 H56         3.0230   -1.1290    5.5760 hc        1 MOL      0.068484
    121 N11         3.4000   -2.6270    0.9560 n         1 MOL     -0.512317
    122 C40         4.2020   -3.2360   -0.0840 c3        1 MOL      0.174290
    123 C41         5.5440   -2.4940   -0.0240 c         1 MOL      0.484225
    124 O16         5.5900   -1.3510    0.4350 o         1 MOL     -0.394854
    125 C42         3.4560   -3.1540   -1.4110 c3        1 MOL      0.155723
    126 O17         2.2660   -3.8520   -1.4470 oh        1 MOL     -0.528581
    127 H57         3.2080   -1.6450    0.7960 hn        1 MOL      0.166418
    128 H58         4.3920   -4.2810    0.1640 h1        1 MOL      0.061365
    129 H59         4.1280   -3.6310   -2.1280 h1        1 MOL      0.002685
    130 H60         3.2910   -2.1340   -1.7750 h1        1 MOL      0.002685
    131 H61         2.3780   -4.6430   -1.9660 ho        1 MOL      0.371398
    132 N12         6.6350   -2.9930   -0.6290 n         1 MOL     -0.572331
    133 C43         7.9450   -2.4100   -0.5180 c3        1 MOL      0.406211
    134 C44         8.1390   -0.8610   -0.8260 c         1 MOL      0.234640
    135 O18         8.6760   -0.0310   -0.0500 o         1 MOL     -0.462299
    136 C45         8.8880   -3.3560   -1.2780 c3        1 MOL     -0.396444
    137 H62         6.5090   -3.7940   -1.2390 hn        1 MOL      0.283857
    138 H63         8.2430   -2.6350    0.5010 h1        1 MOL      0.035111
    139 H64         9.8690   -3.0690   -0.9080 hc        1 MOL      0.109221
    140 H65         8.6440   -4.3840   -0.9960 hc        1 MOL      0.109221
    141 H66         8.8480   -3.0930   -2.3330 hc        1 MOL      0.109221
    142 N13         7.6640   -0.4700   -1.9990 n         1 MOL     -0.169182
    143 C46         7.7490    0.9280   -2.4710 c3        1 MOL     -0.019194
    144 C47         6.7140    1.8160   -1.7540 c         1 MOL      0.417657
    145 O19         6.7350    3.0470   -2.0420 o         1 MOL     -0.530396
    146 C48         7.4640    0.9140   -4.0270 c3        1 MOL     -0.303190
    147 H67         7.2110   -1.1330   -2.6160 hn        1 MOL      0.196925
    148 H68         8.7090    1.3500   -2.1790 h1        1 MOL      0.142027
    149 H69         8.0370    0.1740   -4.5810 hc        1 MOL      0.096465
    150 H70         6.4010    0.7320   -4.1690 hc        1 MOL      0.096465
    151 H71         7.6640    1.9160   -4.4210 hc        1 MOL      0.096465
    152 N14         5.8200    1.2220   -0.9920 n         1 MOL     -0.131138
    153 C49         4.8390    1.9050   -0.1470 c3        1 MOL     -0.020572
    154 C50         5.3390    1.9640    1.2890 c         1 MOL      0.379947
    155 O20         5.1040    3.0060    1.9630 o         1 MOL     -0.507958
    156 C51         3.4040    1.2910   -0.1650 c3        1 MOL     -0.103059
    157 C52         2.7930    1.2070   -1.5910 c3        1 MOL      0.085059
    158 C53         1.4340    0.6290   -1.6160 c         1 MOL      0.654811
    159 O21         0.5210    1.0810   -2.2850 o         1 MOL     -0.704051
    160 O22         1.2530   -0.5070   -1.1290 o         1 MOL     -0.704051
    161 H72         5.8460    0.2070   -0.9570 hn        1 MOL      0.076007
    162 H73         4.6590    2.9220   -0.4780 h1        1 MOL      0.095481
    163 H74         2.7900    1.9110    0.4890 hc        1 MOL      0.062528
    164 H75         3.4260    0.2560    0.1840 hc        1 MOL      0.062528
    165 H76         3.3850    0.6760   -2.3440 hc        1 MOL     -0.030474
    166 H77         2.8500    2.1960   -2.0500 hc        1 MOL     -0.030474
    167 N15         6.2090    1.0150    1.6590 n         1 MOL     -0.097760
    168 C54         6.9850    1.0840    2.8560 c3        1 MOL     -0.090470
    169 H78         7.1010    2.1250    3.1540 h1        1 MOL      0.058978
    170 H79         6.4800    0.5330    3.6490 h1        1 MOL      0.058978
    171 H80         7.9680    0.6460    2.6780 h1        1 MOL      0.058978
    172 H81         6.3200    0.2160    1.0480 hn        1 MOL      0.109232
    173 Ca1        -1.4610   -0.2140   -0.9470 Ca        1 MOL      1.769225
    174 O23        -2.0740   -0.3330   -3.7400 oh        1 MOL     -0.884547
    175 H82        -2.3300    0.5730   -3.9180 ho        1 MOL      0.411674
    176 H83        -1.7780   -0.6720   -4.5830 ho        1 MOL      0.411674
    177 O24        -0.3030   -2.5160   -2.1820 oh        1 MOL     -0.884547
    178 H84         0.4510   -2.8140   -1.6720 ho        1 MOL      0.411674
    179 H85        -0.0130   -2.5640   -3.0940 ho        1 MOL      0.411674
@<TRIPOS>BOND
     1    1    2 1   
     2    1    4 1   
     3    1    5 1   
     4    1    6 1   
     5    2    3 2   
     6    2    7 1   
     7    7    8 1   
     8    7   15 1   
     9    8    9 1   
    10    8   11 1   
    11    8   16 1   
    12    9   10 2   
    13    9   19 1   
    14   11   12 1   
    15   11   17 1   
    16   11   18 1   
    17   12   13 1   
    18   12   14 1   
    19   19   20 1   
    20   19   28 1   
    21   20   21 1   
    22   20   23 1   
    23   20   29 1   
    24   21   22 2   
    25   21   41 1   
    26   23   24 1   
    27   23   30 1   
    28   23   31 1   
    29   24   25 1   
    30   24   32 1   
    31   24   33 1   
    32   25   26 1   
    33   25   34 1   
    34   25   35 1   
    35   26   27 1   
    36   26   36 1   
    37   26   37 1   
    38   27   38 1   
    39   27   39 1   
    40   27   40 1   
    41   41   42 1   
    42   41   49 1   
    43   42   43 1   
    44   42   45 1   
    45   42   50 1   
    46   43   44 2   
    47   43   53 1   
    48   45   46 1   
    49   45   51 1   
    50   45   52 1   
    51   46   47 1   
    52   46   48 1   
    53   53   54 1   
    54   53   57 1   
    55   54   55 1   
    56   54   58 1   
    57   54   59 1   
    58   55   56 2   
    59   55   60 1   
    60   60   61 1   
    61   60   68 1   
    62   61   62 1   
    63   61   64 1   
    64   61   69 1   
    65   62   63 2   
    66   62   74 1   
    67   64   65 1   
    68   64   70 1   
    69   64   71 1   
    70   65   66 1   
    71   65   67 2   
    72   66   72 1   
    73   66   73 1   
    74   74   75 1   
    75   74   78 1   
    76   75   76 1   
    77   75   79 1   
    78   75   80 1   
    79   76   77 2   
    80   76   81 1   
    81   81   82 1   
    82   81   93 1   
    83   82   83 1   
    84   82   85 1   
    85   82   94 1   
    86   83   84 2   
    87   83  102 1   
    88   85   86 1   
    89   85   95 1   
    90   85   96 1   
    91   86   87 ar  
    92   86   88 ar  
    93   87   89 ar  
    94   87   97 1   
    95   88   90 ar  
    96   88   98 1   
    97   89   91 ar  
    98   89   99 1   
    99   90   91 ar  
   100   90  100 1   
   101   91   92 1   
   102   92  101 1   
   103  102  103 1   
   104  102  110 1   
   105  103  104 1   
   106  103  106 1   
   107  103  111 1   
   108  104  105 2   
   109  104  121 1   
   110  106  107 1   
   111  106  108 1   
   112  106  112 1   
   113  107  109 1   
   114  107  113 1   
   115  107  114 1   
   116  108  115 1   
   117  108  116 1   
   118  108  117 1   
   119  109  118 1   
   120  109  119 1   
   121  109  120 1   
   122  121  122 1   
   123  121  127 1   
   124  122  123 1   
   125  122  125 1   
   126  122  128 1   
   127  123  124 2   
   128  123  132 1   
   129  125  126 1   
   130  125  129 1   
   131  125  130 1   
   132  126  131 1   
   133  132  133 1   
   134  132  137 1   
   135  133  134 1   
   136  133  136 1   
   137  133  138 1   
   138  134  135 2   
   139  134  142 1   
   140  136  139 1   
   141  136  140 1   
   142  136  141 1   
   143  142  143 1   
   144  142  147 1   
   145  143  144 1   
   146  143  146 1   
   147  143  148 1   
   148  144  145 2   
   149  144  152 1   
   150  146  149 1   
   151  146  150 1   
   152  146  151 1   
   153  152  153 1   
   154  152  161 1   
   155  153  154 1   
   156  153  156 1   
   157  153  162 1   
   158  154  155 2   
   159  154  167 1   
   160  156  157 1   
   161  156  163 1   
   162  156  164 1   
   163  157  158 1   
   164  157  165 1   
   165  157  166 1   
   166  158  159 1   
   167  158  160 1   
   168  167  168 1   
   169  167  172 1   
   170  168  169 1   
   171  168  170 1   
   172  168  171 1   
   173  174  175 1   
   174  174  176 1   
   175  177  178 1   
   176  177  179 1   
@<TRIPOS>SUBSTRUCTURE
     1 MOL         1 TEMP              0 ****  ****    0 ROOT
