@<TRIPOS>MOLECULE
MOL
  179   176     1     0     0
SMALL
resp


@<TRIPOS>ATOM
      1 C1          0.0460    5.2930   -4.3660 c3        1 MOL     -0.237907
      2 C2          0.4630    4.6020   -3.0510 c         1 MOL      0.563652
      3 O1         -0.1450    4.7660   -2.0150 o         1 MOL     -0.543420
      4 H1          0.1300    4.5840   -5.1900 hc        1 MOL      0.057263
      5 H2         -0.9850    5.6360   -4.2860 hc        1 MOL      0.057263
      6 H3          0.7000    6.1450   -4.5520 hc        1 MOL      0.057263
      7 N1          1.4370    3.7720   -3.0900 n         1 MOL     -0.437373
      8 C3          1.9390    2.9110   -1.9890 c3        1 MOL      0.073860
      9 C4          2.9380    3.7320   -1.0870 c         1 MOL      0.425889
     10 O2          4.1410    3.4670   -1.2090 o         1 MOL     -0.426738
     11 C5          2.6090    1.6070   -2.5780 c3        1 MOL     -0.150603
     12 C6          3.0710    0.6980   -1.4270 c         1 MOL      0.592423
     13 O3          2.7020    0.7200   -0.2200 o         1 MOL     -0.667838
     14 O4          4.1300    0.0710   -1.6120 o         1 MOL     -0.667838
     15 H4          1.6160    3.5020   -4.0450 hn        1 MOL      0.280112
     16 H5          1.0650    2.6810   -1.3710 h1        1 MOL      0.104632
     17 H6          3.4790    1.7960   -3.2010 hc        1 MOL      0.064048
     18 H7          1.8620    1.1420   -3.2250 hc        1 MOL      0.064048
     19 N2          2.4240    4.7370   -0.4050 n         1 MOL     -0.421283
     20 C7          3.1670    5.9180    0.1730 c3        1 MOL     -0.049462
     21 C8          3.8970    5.4850    1.4920 c         1 MOL      0.451851
     22 O5          4.5440    6.3080    2.1020 o         1 MOL     -0.537981
     23 C9          2.3080    7.1730    0.3410 c3        1 MOL      0.018540
     24 C10         1.6710    7.5100   -0.9830 c3        1 MOL      0.222106
     25 C11         1.0540    8.9140   -0.8740 c3        1 MOL     -0.083913
     26 C12         0.1970    9.2980   -2.0900 c3        1 MOL      0.077118
     27 N3         -0.7760   10.3960   -1.7600 n4        1 MOL     -0.341548
     28 H8          1.4100    4.7640   -0.4110 hn        1 MOL      0.316617
     29 H9          3.9750    6.0970   -0.5350 h1        1 MOL      0.127713
     30 H10         2.9400    7.9880    0.6780 hc        1 MOL      0.021311
     31 H11         1.5010    7.1290    1.0710 hc        1 MOL      0.021311
     32 H12         0.9080    6.7620   -1.1850 hc        1 MOL     -0.052912
     33 H13         2.5110    7.4920   -1.6750 hc        1 MOL     -0.052912
     34 H14         1.8920    9.5940   -0.7160 hc        1 MOL      0.024671
     35 H15         0.4730    8.8150    0.0420 hc        1 MOL      0.024671
     36 H16        -0.2480    8.3710   -2.4400 hx        1 MOL      0.067027
     37 H17         0.9290    9.6920   -2.7980 hx        1 MOL      0.067027
     38 H18        -0.3110   11.1340   -1.2530 hn        1 MOL      0.324041
     39 H19        -1.2130   10.8010   -2.5690 hn        1 MOL      0.324041
     40 H20        -1.4880   10.0060   -1.1630 hn        1 MOL      0.324041
     41 N4          3.8900    4.1860    1.8010 n         1 MOL     -0.236845
     42 C13         4.7190    3.4540    2.7830 c3        1 MOL      0.106814
     43 C14         5.8990    2.6570    2.1650 c         1 MOL      0.409057
     44 O6          6.9480    2.7130    2.7680 o         1 MOL     -0.530904
     45 C15         3.9120    2.5370    3.8110 c3        1 MOL     -0.335078
     46 C16         2.9740    1.6230    3.0730 c         1 MOL      0.790633
     47 O7          1.7800    1.9520    2.7820 o         1 MOL     -0.768258
     48 O8          3.3820    0.4520    2.9210 o         1 MOL     -0.768258
     49 H21         3.3570    3.6820    1.1070 hn        1 MOL      0.140819
     50 H22         5.1830    4.2080    3.4230 h1        1 MOL      0.072572
     51 H23         3.3030    3.1570    4.4670 hc        1 MOL      0.097515
     52 H24         4.6070    1.9680    4.4250 hc        1 MOL      0.097515
     53 N5          5.6830    2.0760    0.9660 n         1 MOL      0.078687
     54 C17         6.6700    1.3110    0.1830 c3        1 MOL     -0.305489
     55 C18         6.9820   -0.1870    0.5250 c         1 MOL      0.464859
     56 O9          8.1340   -0.6310    0.1900 o         1 MOL     -0.547318
     57 H25         4.9200    2.4950    0.4620 hn        1 MOL     -0.009437
     58 H26         7.6150    1.8590    0.2200 h1        1 MOL      0.142877
     59 H27         6.2670    1.2590   -0.8290 h1        1 MOL      0.142877
     60 N6          6.0070   -0.9860    0.9240 n         1 MOL     -0.098128
     61 C19         6.1420   -2.4300    1.1330 c3        1 MOL     -0.128193
     62 C20         5.8650   -3.2020   -0.0410 c         1 MOL      0.261378
     63 O10         6.1640   -4.4250   -0.1590 o         1 MOL     -0.482569
     64 C21         5.2230   -2.8910    2.3360 c3        1 MOL     -0.123958
     65 C22         3.7410   -2.6580    2.1480 c         1 MOL      0.700627
     66 N7          3.0410   -3.1430    3.0940 n         1 MOL     -0.805351
     67 O11         3.2710   -2.0610    1.1980 o         1 MOL     -0.456515
     68 H28         5.1220   -0.5780    1.2140 hn        1 MOL      0.073780
     69 H29         7.1900   -2.4720    1.4090 h1        1 MOL      0.134948
     70 H30         5.5080   -2.3440    3.2450 hc        1 MOL      0.070229
     71 H31         5.4380   -3.9230    2.6060 hc        1 MOL      0.070229
     72 H32         3.4620   -3.8690    3.6460 hn        1 MOL      0.347326
     73 H33         2.0320   -3.1180    2.9860 hn        1 MOL      0.347326
     74 N8          5.2560   -2.5790   -1.0480 n         1 MOL      0.052494
     75 C23         5.0310   -3.1250   -2.3900 c3        1 MOL     -0.384604
     76 C24         3.5830   -3.4530   -2.6310 c         1 MOL      0.729929
     77 O12         3.2760   -4.0220   -3.6660 o         1 MOL     -0.596263
     78 H34         5.0300   -1.6210   -0.8200 hn        1 MOL      0.164980
     79 H35         5.5570   -4.0740   -2.4850 h1        1 MOL      0.155670
     80 H36         5.3990   -2.3650   -3.0820 h1        1 MOL      0.155670
     81 N9          2.6810   -3.1780   -1.6500 n         1 MOL     -0.578086
     82 C25         1.3910   -3.7890   -1.5510 c3        1 MOL      0.331795
     83 C26         0.3350   -2.6910   -1.3440 c         1 MOL      0.508455
     84 O13         0.5120   -1.8790   -0.4070 o         1 MOL     -0.624257
     85 C27         1.4660   -4.8210   -0.4940 c3        1 MOL      0.020262
     86 C28         2.3220   -6.0030   -0.6530 ca        1 MOL      0.194060
     87 C29         3.4560   -6.2580    0.1120 ca        1 MOL     -0.245522
     88 C30         1.8270   -7.0540   -1.4410 ca        1 MOL     -0.245522
     89 C31         4.2250   -7.4780   -0.0520 ca        1 MOL     -0.228557
     90 C32         2.5130   -8.2500   -1.5960 ca        1 MOL     -0.228557
     91 C33         3.7400   -8.4810   -0.9390 ca        1 MOL      0.321681
     92 O14         4.3990   -9.6240   -1.2020 oh        1 MOL     -0.454863
     93 H37         2.9810   -2.5250   -0.9500 hn        1 MOL      0.281129
     94 H38         1.1860   -4.3590   -2.4580 h1        1 MOL     -0.015180
     95 H39         0.4360   -5.1540   -0.3760 hc        1 MOL     -0.061380
     96 H40         1.7450   -4.3400    0.4450 hc        1 MOL     -0.061380
     97 H41         3.8020   -5.4400    0.7140 ha        1 MOL      0.128335
     98 H42         0.8380   -6.9690   -1.8860 ha        1 MOL      0.128335
     99 H43         5.1840   -7.6690    0.4120 ha        1 MOL      0.146319
    100 H44         2.0450   -8.9840   -2.2500 ha        1 MOL      0.146319
    101 H45         3.7920  -10.3210   -1.4580 ho        1 MOL      0.337294
    102 N10        -0.9040   -2.8610   -1.9540 n         1 MOL     -0.535311
    103 C34        -2.0550   -2.0400   -1.7170 c3        1 MOL      0.069519
    104 C35        -3.2430   -2.8940   -1.2870 c         1 MOL      0.579472
    105 O15        -3.6990   -3.7880   -1.9870 o         1 MOL     -0.566722
    106 C36        -2.3430   -0.9900   -2.9100 c3        1 MOL     -0.150427
    107 C37        -1.2010    0.0700   -2.9350 c3        1 MOL      0.399392
    108 C38        -3.7230   -0.2230   -2.7400 c3        1 MOL     -0.063337
    109 C39        -1.2820    1.0630   -4.0710 c3        1 MOL     -0.413116
    110 H46        -0.9870   -3.6880   -2.5340 hn        1 MOL      0.307840
    111 H47        -1.8700   -1.3630   -0.8820 h1        1 MOL      0.087266
    112 H48        -2.3060   -1.4160   -3.9170 hc        1 MOL      0.051043
    113 H49        -0.2910   -0.5150   -3.0470 hc        1 MOL     -0.073317
    114 H50        -1.2030    0.5870   -1.9750 hc        1 MOL     -0.073317
    115 H51        -3.7580    0.5400   -3.5180 hc        1 MOL      0.013977
    116 H52        -4.6240   -0.8330   -2.8190 hc        1 MOL      0.013977
    117 H53        -3.7780    0.1180   -1.7030 hc        1 MOL      0.013977
    118 H54        -1.7290    0.6060   -4.9490 hc        1 MOL      0.094915
    119 H55        -1.8300    1.9560   -3.7960 hc        1 MOL      0.094915
    120 H56        -0.2850    1.4750   -4.2610 hc        1 MOL      0.094915
    121 N11        -3.8980   -2.6510   -0.1490 n         1 MOL     -0.403211
    122 C40        -5.2010   -3.2390    0.2130 c3        1 MOL      0.026949
    123 C41        -6.2920   -2.2980   -0.3740 c         1 MOL      0.572090
    124 O16        -6.1310   -1.1700   -0.7980 o         1 MOL     -0.371672
    125 C42        -5.2470   -3.2800    1.7560 c3        1 MOL     -0.072896
    126 O17        -5.1140   -1.9650    2.3050 oh        1 MOL     -0.511173
    127 H57        -3.4670   -1.9940    0.4870 hn        1 MOL      0.262032
    128 H58        -5.3840   -4.2330   -0.1780 h1        1 MOL      0.094621
    129 H59        -4.4380   -3.8340    2.2180 h1        1 MOL      0.079235
    130 H60        -6.2280   -3.6500    2.0680 h1        1 MOL      0.079235
    131 H61        -4.3850   -2.1120    2.9160 ho        1 MOL      0.424702
    132 N12        -7.4880   -2.8100   -0.2680 n         1 MOL     -0.557962
    133 C43        -8.7090   -2.0490   -0.5580 c3        1 MOL      0.124059
    134 C44        -9.2490   -1.0910    0.4880 c         1 MOL      0.599226
    135 O18       -10.1570   -0.4110    0.1910 o         1 MOL     -0.518689
    136 C45        -9.7480   -2.9440   -1.1770 c3        1 MOL     -0.352033
    137 H62        -7.7130   -3.7350    0.0680 hn        1 MOL      0.316890
    138 H63        -8.3790   -1.3650   -1.3420 h1        1 MOL      0.090869
    139 H64       -10.5670   -2.2760   -1.4620 hc        1 MOL      0.105357
    140 H65        -9.5140   -3.4530   -2.1040 hc        1 MOL      0.105357
    141 H66       -10.1160   -3.7030   -0.4850 hc        1 MOL      0.105357
    142 N13        -8.6670   -1.0670    1.6820 n         1 MOL     -0.629669
    143 C46        -8.6870    0.0390    2.6000 c3        1 MOL      0.420051
    144 C47        -7.7650    1.1300    2.1860 c         1 MOL      0.300158
    145 O19        -8.0650    2.3110    2.2060 o         1 MOL     -0.520608
    146 C48        -8.3530   -0.5180    3.9790 c3        1 MOL     -0.392911
    147 H67        -7.9660   -1.7500    1.9300 hn        1 MOL      0.326164
    148 H68        -9.6350    0.5690    2.6280 h1        1 MOL      0.025060
    149 H69        -7.3200   -0.7670    4.2090 hc        1 MOL      0.098904
    150 H70        -8.4650    0.3830    4.5850 hc        1 MOL      0.098904
    151 H71        -9.1670   -1.1560    4.3190 hc        1 MOL      0.098904
    152 N14        -6.6050    0.7380    1.6050 n         1 MOL      0.009693
    153 C49        -5.5370    1.6510    1.2630 c3        1 MOL     -0.187101
    154 C50        -5.7610    2.3130   -0.1260 c         1 MOL      0.459675
    155 O20        -5.2440    3.3770   -0.4350 o         1 MOL     -0.532728
    156 C51        -4.1930    0.9550    1.3950 c3        1 MOL     -0.000433
    157 C52        -2.9290    1.6250    0.8970 c3        1 MOL     -0.273257
    158 C53        -1.7390    0.7040    0.9860 c         1 MOL      0.842151
    159 O21        -0.6650    1.1740    0.5250 o         1 MOL     -0.787266
    160 O22        -1.6950   -0.4160    1.5920 o         1 MOL     -0.787266
    161 H72        -6.3800   -0.2490    1.5690 hn        1 MOL     -0.030006
    162 H73        -5.5060    2.4640    1.9990 h1        1 MOL      0.128194
    163 H74        -4.3570   -0.0200    0.9330 hc        1 MOL      0.018992
    164 H75        -3.9960    0.6530    2.4230 hc        1 MOL      0.018992
    165 H76        -2.7410    2.5550    1.4450 hc        1 MOL      0.105101
    166 H77        -2.9850    1.9970   -0.1180 hc        1 MOL      0.105101
    167 N15        -6.6640    1.6800   -0.9400 n         1 MOL     -0.095572
    168 C54        -7.0830    2.2240   -2.2020 c3        1 MOL     -0.157004
    169 H78        -6.9330    1.4800   -2.9840 h1        1 MOL      0.067991
    170 H79        -8.1390    2.4890   -2.1510 h1        1 MOL      0.067991
    171 H80        -6.4940    3.1120   -2.4280 h1        1 MOL      0.067991
    172 H81        -7.0110    0.7640   -0.6970 hn        1 MOL      0.123942
    173 Ca1         1.1690   -0.3240    1.5390 Ca        1 MOL      1.697103
    174 O23         0.1810   -2.7970    2.6060 oh        1 MOL     -0.745092
    175 H82        -0.0100   -3.4730    1.9570 ho        1 MOL      0.386451
    176 H83        -0.2950   -3.0810    3.3880 ho        1 MOL      0.386451
    177 O24         0.4640   -0.3210    4.1680 oh        1 MOL     -0.745092
    178 H84        -0.3890   -0.2690    4.6020 ho        1 MOL      0.386451
    179 H85         1.0850   -0.5030    4.8620 ho        1 MOL      0.386451
@<TRIPOS>BOND
     1    1    2 1   
     2    1    4 1   
     3    1    5 1   
     4    1    6 1   
     5    2    3 2   
     6    2    7 1   
     7    7    8 1   
     8    7   15 1   
     9    8    9 1   
    10    8   11 1   
    11    8   16 1   
    12    9   10 2   
    13    9   19 1   
    14   11   12 1   
    15   11   17 1   
    16   11   18 1   
    17   12   13 1   
    18   12   14 1   
    19   19   20 1   
    20   19   28 1   
    21   20   21 1   
    22   20   23 1   
    23   20   29 1   
    24   21   22 2   
    25   21   41 1   
    26   23   24 1   
    27   23   30 1   
    28   23   31 1   
    29   24   25 1   
    30   24   32 1   
    31   24   33 1   
    32   25   26 1   
    33   25   34 1   
    34   25   35 1   
    35   26   27 1   
    36   26   36 1   
    37   26   37 1   
    38   27   38 1   
    39   27   39 1   
    40   27   40 1   
    41   41   42 1   
    42   41   49 1   
    43   42   43 1   
    44   42   45 1   
    45   42   50 1   
    46   43   44 2   
    47   43   53 1   
    48   45   46 1   
    49   45   51 1   
    50   45   52 1   
    51   46   47 1   
    52   46   48 1   
    53   53   54 1   
    54   53   57 1   
    55   54   55 1   
    56   54   58 1   
    57   54   59 1   
    58   55   56 2   
    59   55   60 1   
    60   60   61 1   
    61   60   68 1   
    62   61   62 1   
    63   61   64 1   
    64   61   69 1   
    65   62   63 2   
    66   62   74 1   
    67   64   65 1   
    68   64   70 1   
    69   64   71 1   
    70   65   66 1   
    71   65   67 2   
    72   66   72 1   
    73   66   73 1   
    74   74   75 1   
    75   74   78 1   
    76   75   76 1   
    77   75   79 1   
    78   75   80 1   
    79   76   77 2   
    80   76   81 1   
    81   81   82 1   
    82   81   93 1   
    83   82   83 1   
    84   82   85 1   
    85   82   94 1   
    86   83   84 2   
    87   83  102 1   
    88   85   86 1   
    89   85   95 1   
    90   85   96 1   
    91   86   87 ar  
    92   86   88 ar  
    93   87   89 ar  
    94   87   97 1   
    95   88   90 ar  
    96   88   98 1   
    97   89   91 ar  
    98   89   99 1   
    99   90   91 ar  
   100   90  100 1   
   101   91   92 1   
   102   92  101 1   
   103  102  103 1   
   104  102  110 1   
   105  103  104 1   
   106  103  106 1   
   107  103  111 1   
   108  104  105 2   
   109  104  121 1   
   110  106  107 1   
   111  106  108 1   
   112  106  112 1   
   113  107  109 1   
   114  107  113 1   
   115  107  114 1   
   116  108  115 1   
   117  108  116 1   
   118  108  117 1   
   119  109  118 1   
   120  109  119 1   
   121  109  120 1   
   122  121  122 1   
   123  121  127 1   
   124  122  123 1   
   125  122  125 1   
   126  122  128 1   
   127  123  124 2   
   128  123  132 1   
   129  125  126 1   
   130  125  129 1   
   131  125  130 1   
   132  126  131 1   
   133  132  133 1   
   134  132  137 1   
   135  133  134 1   
   136  133  136 1   
   137  133  138 1   
   138  134  135 2   
   139  134  142 1   
   140  136  139 1   
   141  136  140 1   
   142  136  141 1   
   143  142  143 1   
   144  142  147 1   
   145  143  144 1   
   146  143  146 1   
   147  143  148 1   
   148  144  145 2   
   149  144  152 1   
   150  146  149 1   
   151  146  150 1   
   152  146  151 1   
   153  152  153 1   
   154  152  161 1   
   155  153  154 1   
   156  153  156 1   
   157  153  162 1   
   158  154  155 2   
   159  154  167 1   
   160  156  157 1   
   161  156  163 1   
   162  156  164 1   
   163  157  158 1   
   164  157  165 1   
   165  157  166 1   
   166  158  159 1   
   167  158  160 1   
   168  167  168 1   
   169  167  172 1   
   170  168  169 1   
   171  168  170 1   
   172  168  171 1   
   173  174  175 1   
   174  174  176 1   
   175  177  178 1   
   176  177  179 1   
@<TRIPOS>SUBSTRUCTURE
     1 MOL         1 TEMP              0 ****  ****    0 ROOT
