@<TRIPOS>MOLECULE
MOL
  189   185     1     0     0
SMALL
resp


@<TRIPOS>ATOM
      1 C1          0.0490    3.9100    4.7420 c3        1 MOL     -0.404630
      2 C2         -0.5370    3.5130    3.3990 c         1 MOL      0.768098
      3 O1          0.1760    3.6910    2.3440 o         1 MOL     -0.695563
      4 H1          1.1370    3.9150    4.6760 hc        1 MOL      0.107784
      5 H2         -0.3030    4.9050    5.0130 hc        1 MOL      0.107784
      6 H3         -0.2640    3.1940    5.5020 hc        1 MOL      0.107784
      7 N1         -1.7300    2.9120    3.3280 n         1 MOL     -0.665138
      8 C3         -2.2430    2.2870    2.1310 c3        1 MOL      0.459318
      9 C4         -2.7650    3.3140    1.1190 c         1 MOL      0.340761
     10 O2         -3.8170    3.8700    1.4480 o         1 MOL     -0.570835
     11 C5         -3.2710    1.2200    2.4620 c3        1 MOL     -0.453721
     12 C6         -3.9730    0.5660    1.2730 c         1 MOL      0.867924
     13 O3         -3.4560    0.6300    0.1290 o         1 MOL     -0.688892
     14 O4         -5.1100    0.0250    1.4000 o         1 MOL     -0.688892
     15 H4         -2.3530    2.8880    4.1180 hn        1 MOL      0.337383
     16 H5         -1.4430    1.7860    1.5750 h1        1 MOL     -0.066520
     17 H6         -4.0340    1.5470    3.1640 hc        1 MOL      0.095909
     18 H7         -2.6520    0.4480    2.9290 hc        1 MOL      0.095909
     19 N2         -2.0910    3.6570    0.0250 n         1 MOL     -0.026371
     20 C7         -2.2570    4.8250   -0.7750 c3        1 MOL     -0.243407
     21 C8         -3.0080    4.6060   -2.1130 c         1 MOL      0.659443
     22 O5         -3.0690    5.5360   -2.8750 o         1 MOL     -0.570730
     23 C9         -0.8410    5.5420   -0.9640 c3        1 MOL     -0.046116
     24 C10        -0.1760    6.3100    0.2160 c3        1 MOL      0.318244
     25 C11        -1.1090    7.4140    0.8340 c3        1 MOL     -0.359896
     26 C12        -0.2570    8.4430    1.5780 c3        1 MOL      0.022221
     27 N3          0.6530    7.9250    2.5970 n4        1 MOL     -0.314586
     28 H8         -1.3250    3.0200   -0.1210 hn        1 MOL      0.315412
     29 H9         -2.7820    5.5710   -0.1740 h1        1 MOL      0.082284
     30 H10        -0.9120    6.3110   -1.7420 hc        1 MOL      0.008863
     31 H11        -0.1050    4.7840   -1.2070 hc        1 MOL      0.008863
     32 H12         0.7760    6.7560   -0.0790 hc        1 MOL     -0.059220
     33 H13        -0.0700    5.5600    1.0060 hc        1 MOL     -0.059220
     34 H14        -1.8410    6.9150    1.4580 hc        1 MOL      0.139348
     35 H15        -1.5440    7.9460   -0.0170 hc        1 MOL      0.139348
     36 H16        -0.9930    9.1280    2.0080 hx        1 MOL      0.089970
     37 H17         0.3230    9.1300    0.9620 hx        1 MOL      0.089970
     38 H18         0.1000    7.4070    3.2620 hn        1 MOL      0.315605
     39 H19         1.2240    7.2180    2.1450 hn        1 MOL      0.315605
     40 H20         1.1780    8.5940    3.1430 hn        1 MOL      0.315605
     41 N4         -3.5900    3.4390   -2.2920 n         1 MOL     -0.411141
     42 C13        -4.6620    3.1470   -3.2280 c3        1 MOL     -0.018936
     43 C14        -5.9210    2.4530   -2.6050 c         1 MOL      0.400883
     44 O6         -7.0340    2.6660   -3.1270 o         1 MOL     -0.531478
     45 C15        -4.1210    2.3320   -4.3710 c3        1 MOL     -0.164269
     46 C16        -3.0020    1.2760   -4.1150 c         1 MOL      0.733668
     47 O7         -3.0020    0.7220   -3.0010 o         1 MOL     -0.693662
     48 O8         -2.2160    1.0180   -5.0580 o         1 MOL     -0.693662
     49 H21        -3.1380    2.6710   -1.8340 hn        1 MOL      0.201144
     50 H22        -5.0510    4.0750   -3.6390 h1        1 MOL      0.118159
     51 H23        -3.6740    3.0530   -5.0510 hc        1 MOL      0.053410
     52 H24        -4.8620    1.9490   -5.0640 hc        1 MOL      0.053410
     53 N5         -5.8180    1.8050   -1.4440 n         1 MOL     -0.081769
     54 C17        -6.9350    1.2180   -0.7670 c3        1 MOL     -0.201641
     55 C18        -7.4400   -0.1260   -1.1840 c         1 MOL      0.577294
     56 O9         -8.6890   -0.2870   -1.3910 o         1 MOL     -0.595684
     57 H25        -4.9120    1.7370   -1.0140 hn        1 MOL      0.111289
     58 H26        -7.7390    1.9480   -0.8720 h1        1 MOL      0.100805
     59 H27        -6.7270    1.0810    0.2900 h1        1 MOL      0.100805
     60 N6         -6.5620   -1.1000   -1.1420 n         1 MOL     -0.222417
     61 C19        -6.8050   -2.5090   -1.4600 c3        1 MOL     -0.017090
     62 C20        -6.7530   -3.4230   -0.2080 c         1 MOL      0.425698
     63 O10        -6.9100   -4.6340   -0.3520 o         1 MOL     -0.522256
     64 C21        -5.7740   -3.0230   -2.4850 c3        1 MOL     -0.138299
     65 C22        -4.3280   -2.6830   -2.0930 c         1 MOL      0.673426
     66 O11        -3.3630   -2.5290   -2.8900 o         1 MOL     -0.677910
     67 O12        -3.9870   -2.6660   -0.8760 o         1 MOL     -0.677910
     68 H28        -5.6690   -0.9010   -0.7280 hn        1 MOL      0.048286
     69 H29        -7.8250   -2.5790   -1.8360 h1        1 MOL      0.119579
     70 H30        -5.9670   -2.4880   -3.4160 hc        1 MOL      0.061351
     71 H31        -5.8710   -4.0730   -2.7580 hc        1 MOL      0.061351
     72 N7         -6.6300   -2.8880    0.9790 n         1 MOL     -0.349404
     73 C23        -6.3710   -3.5900    2.1990 c3        1 MOL     -0.033031
     74 C24        -5.0010   -4.1380    2.4440 c         1 MOL      0.487841
     75 O13        -4.8160   -4.9880    3.3300 o         1 MOL     -0.583052
     76 H32        -6.5140   -1.8900    1.0940 hn        1 MOL      0.302675
     77 H33        -6.9880   -4.4940    2.2710 h1        1 MOL      0.078953
     78 H34        -6.6490   -2.9880    3.0700 h1        1 MOL      0.078953
     79 N8         -3.9980   -3.7940    1.6320 n         1 MOL     -0.142660
     80 C25        -2.6140   -4.3900    1.8190 c3        1 MOL     -0.415976
     81 C26        -1.5890   -3.2470    1.8870 c         1 MOL      0.915878
     82 O14        -1.6830   -2.2690    1.1390 o         1 MOL     -0.765438
     83 C27        -2.2430   -5.3510    0.7190 c3        1 MOL      0.512056
     84 C28        -2.6530   -6.8300    1.1230 c3        1 MOL     -0.521791
     85 O15        -2.7380   -5.1590   -0.5510 oh        1 MOL     -0.599748
     86 H35        -4.1530   -2.9850    1.0490 hn        1 MOL      0.147864
     87 H36        -2.4870   -4.9690    2.7390 h1        1 MOL      0.158682
     88 H37        -1.1510   -5.3400    0.6930 h1        1 MOL     -0.024897
     89 H38        -3.2890   -4.3780   -0.5680 ho        1 MOL      0.444433
     90 H39        -2.2800   -7.1590    2.0960 hc        1 MOL      0.135843
     91 H40        -3.7350   -6.8650    1.2160 hc        1 MOL      0.135843
     92 H41        -2.3550   -7.5580    0.3690 hc        1 MOL      0.135843
     93 N9         -0.5730   -3.2950    2.7090 n         1 MOL     -0.635667
     94 C29         0.5150   -2.3750    2.6290 c3        1 MOL     -0.074392
     95 C30         1.8050   -2.9330    1.8990 c         1 MOL      0.564186
     96 O16         2.3160   -3.9630    2.3260 o         1 MOL     -0.561326
     97 C31         0.9060   -1.8880    4.0750 c3        1 MOL      0.198301
     98 C32        -0.3470   -1.1970    4.7710 c3        1 MOL      0.182489
     99 C33         2.0710   -0.8430    4.1340 c3        1 MOL     -0.466066
    100 C34        -0.2310   -1.1770    6.2990 c3        1 MOL     -0.194015
    101 H42        -0.5140   -4.0750    3.3550 hn        1 MOL      0.316081
    102 H43         0.2260   -1.4470    2.1450 h1        1 MOL      0.153577
    103 H44         1.2400   -2.6660    4.7550 hc        1 MOL      0.017541
    104 H45        -1.2730   -1.6970    4.4980 hc        1 MOL     -0.033491
    105 H46        -0.4540   -0.1700    4.4260 hc        1 MOL     -0.033491
    106 H47         1.9590    0.0310    3.4960 hc        1 MOL      0.097304
    107 H48         2.3090   -0.3890    5.1000 hc        1 MOL      0.097304
    108 H49         3.0180   -1.3670    3.9900 hc        1 MOL      0.097304
    109 H50         0.0090   -2.2030    6.6140 hc        1 MOL      0.037272
    110 H51         0.5850   -0.5410    6.6430 hc        1 MOL      0.037272
    111 H52        -1.1690   -0.7960    6.6970 hc        1 MOL      0.037272
    112 N10         2.4130   -2.2530    0.9300 n         1 MOL     -0.209053
    113 C35         3.5730   -2.6410    0.1150 c3        1 MOL     -0.138286
    114 C36         4.8490   -2.0990    0.6380 c         1 MOL      0.494474
    115 O17         4.8460   -1.0860    1.4060 o         1 MOL     -0.429183
    116 C37         3.5150   -2.0650   -1.3790 c3        1 MOL      0.262027
    117 C38         2.4230   -2.7090   -2.2490 c3        1 MOL     -0.322280
    118 O18         3.2050   -0.7370   -1.1770 oh        1 MOL     -0.526704
    119 H53         2.2190   -1.2930    0.7020 hn        1 MOL      0.205181
    120 H54         3.6400   -3.7190    0.2240 h1        1 MOL      0.083268
    121 H55         4.4620   -2.2250   -1.9000 h1        1 MOL     -0.015519
    122 H56         2.2530   -0.7050   -1.0650 ho        1 MOL      0.383441
    123 H57         2.7270   -3.7070   -2.5230 hc        1 MOL      0.091733
    124 H58         1.4540   -2.6750   -1.7480 hc        1 MOL      0.091733
    125 H59         2.4140   -2.0620   -3.1310 hc        1 MOL      0.091733
    126 N11         6.0430   -2.5490    0.1460 n         1 MOL     -0.384743
    127 C39         7.3590   -1.9490    0.5630 c3        1 MOL     -0.041748
    128 C40         7.4750   -0.5170   -0.0320 c         1 MOL      0.125908
    129 O19         7.9910    0.3540    0.6660 o         1 MOL     -0.429874
    130 C41         8.5710   -2.6710   -0.0130 c3        1 MOL      0.323477
    131 C42         8.7890   -4.0720    0.5250 c3        1 MOL     -0.540498
    132 O20         8.4180   -2.7360   -1.4140 oh        1 MOL     -0.713266
    133 H60         6.0840   -3.2520   -0.5840 hn        1 MOL      0.259366
    134 H61         7.4750   -1.9040    1.6480 h1        1 MOL      0.153124
    135 H62         9.4790   -2.1170    0.2180 h1        1 MOL      0.077371
    136 H63         9.2880   -2.8220   -1.8280 ho        1 MOL      0.391270
    137 H64         9.8260   -4.4030    0.4560 hc        1 MOL      0.155759
    138 H65         8.4430   -4.1570    1.5580 hc        1 MOL      0.155759
    139 H66         8.1000   -4.7890    0.0710 hc        1 MOL      0.155759
    140 N12         6.8360   -0.2770   -1.1960 n         1 MOL      0.156293
    141 C43         6.6510    1.1040   -1.6460 c3        1 MOL      0.008561
    142 C44         5.9170    1.9990   -0.7500 c         1 MOL      0.355674
    143 O21         6.3710    3.1330   -0.5260 o         1 MOL     -0.510406
    144 C45         6.1630    1.1540   -3.1640 c3        1 MOL     -0.397565
    145 C46         6.5430   -0.0860   -4.0300 c3        1 MOL      0.003723
    146 C47         8.0620   -0.1580   -4.3140 c3        1 MOL      0.037178
    147 C48         8.4050   -1.3880   -5.2490 c3        1 MOL     -0.173269
    148 N13         8.4120   -2.6430   -4.4330 n4        1 MOL     -0.390847
    149 H67         6.5020   -1.0250   -1.7820 hn        1 MOL      0.194182
    150 H68         7.6440    1.5450   -1.6220 h1        1 MOL      0.029997
    151 H69         6.6780    2.0340   -3.5520 hc        1 MOL      0.166624
    152 H70         5.1090    1.4050   -3.1400 hc        1 MOL      0.166624
    153 H71         6.0040    0.1180   -4.9580 hc        1 MOL      0.032934
    154 H72         6.1550   -0.9730   -3.5230 hc        1 MOL      0.032934
    155 H73         8.5340   -0.2940   -3.3320 hc        1 MOL      0.040178
    156 H74         8.4340    0.7040   -4.8630 hc        1 MOL      0.040178
    157 H75         9.3450   -1.2030   -5.7620 hx        1 MOL      0.152228
    158 H76         7.5540   -1.5140   -5.9300 hx        1 MOL      0.152228
    159 H77         8.3060   -3.5190   -4.9140 hn        1 MOL      0.330701
    160 H78         9.3110   -2.5790   -3.9760 hn        1 MOL      0.330701
    161 H79         7.6010   -2.6490   -3.8350 hn        1 MOL      0.330701
    162 N14         4.8380    1.5160   -0.1390 n         1 MOL      0.123910
    163 C49         4.0200    2.2620    0.8150 c3        1 MOL     -0.232248
    164 C50         4.5690    2.5540    2.2240 c         1 MOL      0.490776
    165 O22         4.3360    3.6370    2.7370 o         1 MOL     -0.571048
    166 C51         2.5880    1.6530    1.0540 c3        1 MOL      0.107438
    167 C52         1.7150    1.9550   -0.2170 c3        1 MOL     -0.077516
    168 C53         0.6060    0.9250   -0.4060 c         1 MOL      0.812892
    169 O23        -0.5200    1.3770   -0.6290 o         1 MOL     -0.803592
    170 O24         0.8030   -0.3040   -0.4030 o         1 MOL     -0.803592
    171 H80         4.7610    0.5070   -0.2270 hn        1 MOL     -0.147095
    172 H81         3.8220    3.2370    0.3630 h1        1 MOL      0.102952
    173 H82         2.1640    1.9950    1.9940 hc        1 MOL      0.031480
    174 H83         2.7160    0.5790    1.1870 hc        1 MOL      0.031480
    175 H84         2.3420    1.9820   -1.1020 hc        1 MOL      0.002681
    176 H85         1.2560    2.9250   -0.0190 hc        1 MOL      0.002681
    177 N15         5.3960    1.6820    2.7820 n         1 MOL     -0.168503
    178 C54         6.2390    2.0150    3.9770 c3        1 MOL     -0.202109
    179 H86         7.2870    1.8270    3.7460 h1        1 MOL      0.097357
    180 H87         6.1070    3.0670    4.2340 h1        1 MOL      0.097357
    181 H88         5.9370    1.3940    4.8200 h1        1 MOL      0.097357
    182 H89         5.4310    0.8150    2.2820 hn        1 MOL      0.202572
    183 Ca1        -1.8060   -0.8890   -1.1800 Ca        1 MOL      1.811953
    184 O25        -0.6770   -0.5680   -3.7630 oh        1 MOL     -0.891509
    185 H90        -1.1990    0.1340   -4.1450 ho        1 MOL      0.402899
    186 H91        -0.2850   -1.0090   -4.5150 ho        1 MOL      0.402899
    187 O26        -0.9340   -3.4800   -1.6330 oh        1 MOL     -0.891509
    188 H92        -1.4690   -4.2480   -1.4420 ho        1 MOL      0.402899
    189 H93        -0.4590   -3.7080   -2.4360 ho        1 MOL      0.402899
@<TRIPOS>BOND
     1    1    2 1   
     2    1    4 1   
     3    1    5 1   
     4    1    6 1   
     5    2    3 2   
     6    2    7 1   
     7    7    8 1   
     8    7   15 1   
     9    8    9 1   
    10    8   11 1   
    11    8   16 1   
    12    9   10 2   
    13    9   19 1   
    14   11   12 1   
    15   11   17 1   
    16   11   18 1   
    17   12   13 1   
    18   12   14 1   
    19   19   20 1   
    20   19   28 1   
    21   20   21 1   
    22   20   23 1   
    23   20   29 1   
    24   21   22 2   
    25   21   41 1   
    26   23   24 1   
    27   23   30 1   
    28   23   31 1   
    29   24   25 1   
    30   24   32 1   
    31   24   33 1   
    32   25   26 1   
    33   25   34 1   
    34   25   35 1   
    35   26   27 1   
    36   26   36 1   
    37   26   37 1   
    38   27   38 1   
    39   27   39 1   
    40   27   40 1   
    41   41   42 1   
    42   41   49 1   
    43   42   43 1   
    44   42   45 1   
    45   42   50 1   
    46   43   44 2   
    47   43   53 1   
    48   45   46 1   
    49   45   51 1   
    50   45   52 1   
    51   46   47 1   
    52   46   48 1   
    53   53   54 1   
    54   53   57 1   
    55   54   55 1   
    56   54   58 1   
    57   54   59 1   
    58   55   56 2   
    59   55   60 1   
    60   60   61 1   
    61   60   68 1   
    62   61   62 1   
    63   61   64 1   
    64   61   69 1   
    65   62   63 2   
    66   62   72 1   
    67   64   65 1   
    68   64   70 1   
    69   64   71 1   
    70   65   66 1   
    71   65   67 1   
    72   72   73 1   
    73   72   76 1   
    74   73   74 1   
    75   73   77 1   
    76   73   78 1   
    77   74   75 2   
    78   74   79 1   
    79   79   80 1   
    80   79   86 1   
    81   80   81 1   
    82   80   83 1   
    83   80   87 1   
    84   81   82 2   
    85   81   93 1   
    86   83   84 1   
    87   83   85 1   
    88   83   88 1   
    89   84   90 1   
    90   84   91 1   
    91   84   92 1   
    92   85   89 1   
    93   93   94 1   
    94   93  101 1   
    95   94   95 1   
    96   94   97 1   
    97   94  102 1   
    98   95   96 2   
    99   95  112 1   
   100   97   98 1   
   101   97   99 1   
   102   97  103 1   
   103   98  100 1   
   104   98  104 1   
   105   98  105 1   
   106   99  106 1   
   107   99  107 1   
   108   99  108 1   
   109  100  109 1   
   110  100  110 1   
   111  100  111 1   
   112  112  113 1   
   113  112  119 1   
   114  113  114 1   
   115  113  116 1   
   116  113  120 1   
   117  114  115 2   
   118  114  126 1   
   119  116  117 1   
   120  116  118 1   
   121  116  121 1   
   122  117  123 1   
   123  117  124 1   
   124  117  125 1   
   125  118  122 1   
   126  126  127 1   
   127  126  133 1   
   128  127  128 1   
   129  127  130 1   
   130  127  134 1   
   131  128  129 2   
   132  128  140 1   
   133  130  131 1   
   134  130  132 1   
   135  130  135 1   
   136  131  137 1   
   137  131  138 1   
   138  131  139 1   
   139  132  136 1   
   140  140  141 1   
   141  140  149 1   
   142  141  142 1   
   143  141  144 1   
   144  141  150 1   
   145  142  143 2   
   146  142  162 1   
   147  144  145 1   
   148  144  151 1   
   149  144  152 1   
   150  145  146 1   
   151  145  153 1   
   152  145  154 1   
   153  146  147 1   
   154  146  155 1   
   155  146  156 1   
   156  147  148 1   
   157  147  157 1   
   158  147  158 1   
   159  148  159 1   
   160  148  160 1   
   161  148  161 1   
   162  162  163 1   
   163  162  171 1   
   164  163  164 1   
   165  163  166 1   
   166  163  172 1   
   167  164  165 2   
   168  164  177 1   
   169  166  167 1   
   170  166  173 1   
   171  166  174 1   
   172  167  168 1   
   173  167  175 1   
   174  167  176 1   
   175  168  169 1   
   176  168  170 1   
   177  177  178 1   
   178  177  182 1   
   179  178  179 1   
   180  178  180 1   
   181  178  181 1   
   182  184  185 1   
   183  184  186 1   
   184  187  188 1   
   185  187  189 1   
@<TRIPOS>SUBSTRUCTURE
     1 MOL         1 TEMP              0 ****  ****    0 ROOT
