@<TRIPOS>MOLECULE
MOL
  175   173     1     0     0
SMALL
resp


@<TRIPOS>ATOM
      1 C1          0.2180    4.5330    5.6620 c3        1 MOL     -0.387088
      2 C2         -0.2970    4.3310    4.2110 c         1 MOL      0.719687
      3 O1          0.4500    4.5290    3.2480 o         1 MOL     -0.546616
      4 H1         -0.0790    3.6820    6.2740 hc        1 MOL      0.095469
      5 H2          1.3050    4.6140    5.6540 hc        1 MOL      0.095469
      6 H3         -0.2110    5.4460    6.0760 hc        1 MOL      0.095469
      7 N1         -1.5820    3.8340    4.0220 n         1 MOL     -0.675251
      8 C3         -2.1140    3.4840    2.6970 c3        1 MOL      0.104211
      9 C4         -2.1620    4.6970    1.7330 c         1 MOL      0.575639
     10 O2         -2.4110    5.8250    2.2010 o         1 MOL     -0.572068
     11 C5         -3.4520    2.8930    2.9330 c3        1 MOL     -0.266517
     12 C6         -4.0710    2.3540    1.6520 c         1 MOL      0.734529
     13 O3         -5.2980    2.1410    1.5880 o         1 MOL     -0.688161
     14 O4         -3.3710    1.9910    0.6540 o         1 MOL     -0.688161
     15 H4         -2.2160    3.5780    4.7570 hn        1 MOL      0.336890
     16 H5         -1.4960    2.6900    2.2740 h1        1 MOL      0.128722
     17 H6         -4.1590    3.6140    3.3240 hc        1 MOL      0.065218
     18 H7         -3.3920    2.1390    3.7170 hc        1 MOL      0.065218
     19 N2         -1.9890    4.5050    0.4220 n         1 MOL     -0.410707
     20 C7         -2.1160    5.5610   -0.5790 c3        1 MOL      0.166918
     21 C8         -2.9340    5.0540   -1.8700 c         1 MOL      0.528943
     22 O5         -2.8720    5.6880   -2.9540 o         1 MOL     -0.565978
     23 C9         -0.6990    5.9850   -0.9840 c3        1 MOL     -0.206399
     24 H8         -1.6090    3.6010    0.1810 hn        1 MOL      0.259370
     25 H9         -2.7190    6.3450   -0.1120 h1        1 MOL      0.024431
     26 H10        -0.2260    6.5910   -0.2140 hc        1 MOL      0.053056
     27 H11        -0.0900    5.1160   -1.2470 hc        1 MOL      0.053056
     28 H12        -0.7720    6.6260   -1.8690 hc        1 MOL      0.053056
     29 N3         -3.6850    3.9340   -1.7750 n         1 MOL     -0.502457
     30 C10        -4.5510    3.3710   -2.9050 c3        1 MOL      0.179313
     31 C11        -5.9430    2.7730   -2.5230 c         1 MOL      0.396781
     32 O6         -6.8860    2.8570   -3.2880 o         1 MOL     -0.539401
     33 C12        -3.6570    2.4240   -3.7780 c3        1 MOL     -0.182072
     34 C13        -3.1530    1.1960   -3.0170 c         1 MOL      0.722100
     35 O7         -2.0830    0.6160   -3.3520 o         1 MOL     -0.703673
     36 O8         -3.7300    0.7710   -2.0060 o         1 MOL     -0.703673
     37 H13        -3.6630    3.3210   -0.9690 hn        1 MOL      0.251470
     38 H14        -4.8690    4.1900   -3.5590 h1        1 MOL      0.047994
     39 H15        -2.7620    2.9370   -4.1210 hc        1 MOL      0.052811
     40 H16        -4.1640    2.0860   -4.6720 hc        1 MOL      0.052811
     41 N4         -6.1060    2.1950   -1.2830 n         1 MOL     -0.222056
     42 C14        -7.3110    1.4580   -0.8570 c3        1 MOL     -0.186274
     43 C15        -7.3240    0.0080   -1.3090 c         1 MOL      0.520754
     44 O9         -8.2970   -0.7190   -1.1680 o         1 MOL     -0.616753
     45 H17        -5.3170    2.2440   -0.6650 hn        1 MOL      0.160457
     46 H18        -8.2870    1.8800   -1.1110 h1        1 MOL      0.123878
     47 H19        -7.3510    1.5120    0.2300 h1        1 MOL      0.123878
     48 N5         -6.2290   -0.5850   -1.8600 n         1 MOL     -0.253134
     49 C16        -6.1510   -1.9760   -2.3660 c3        1 MOL      0.014147
     50 C17        -6.1830   -3.0830   -1.2700 c         1 MOL      0.478667
     51 O10        -6.1060   -4.3060   -1.6630 o         1 MOL     -0.589271
     52 C18        -4.8560   -2.0720   -3.1950 c3        1 MOL     -0.157776
     53 C19        -3.6460   -2.5730   -2.4360 c         1 MOL      0.692679
     54 N6         -2.8290   -3.4430   -2.9950 n         1 MOL     -0.625474
     55 O11        -3.4410   -2.2410   -1.2450 o         1 MOL     -0.777088
     56 H20        -5.3880   -0.0440   -1.9830 hn        1 MOL      0.209236
     57 H21        -7.0820   -2.1110   -2.9120 h1        1 MOL      0.100793
     58 H22        -4.7000   -1.0750   -3.6100 hc        1 MOL      0.045111
     59 H23        -5.0420   -2.7830   -3.9970 hc        1 MOL      0.045111
     60 H24        -2.8590   -3.5850   -3.9930 hn        1 MOL      0.335598
     61 H25        -1.9020   -3.5850   -2.6160 hn        1 MOL      0.335598
     62 N7         -6.2230   -2.7560   -0.0070 n         1 MOL     -0.252319
     63 C20        -6.3490   -3.8580    1.0350 c3        1 MOL     -0.111188
     64 C21        -5.0200   -4.3250    1.6630 c         1 MOL      0.434550
     65 O12        -5.1130   -5.2460    2.4780 o         1 MOL     -0.543704
     66 H26        -6.2020   -1.7870    0.2820 hn        1 MOL      0.273090
     67 H27        -6.7300   -4.7640    0.5770 h1        1 MOL      0.106008
     68 H28        -7.1020   -3.6330    1.7870 h1        1 MOL      0.106008
     69 N8         -3.8620   -3.6830    1.3490 n         1 MOL     -0.150797
     70 C22        -2.5640   -4.2710    1.7540 c3        1 MOL     -0.044892
     71 C23        -1.4550   -3.2570    1.9070 c         1 MOL      0.352799
     72 O13        -1.4890   -2.1200    1.3280 o         1 MOL     -0.472294
     73 C24        -2.1400   -5.2790    0.7410 c3        1 MOL      0.605925
     74 C25        -3.1390   -6.3540    0.3300 c3        1 MOL     -0.612126
     75 O14        -1.8160   -4.6260   -0.4740 oh        1 MOL     -0.648402
     76 H29        -3.9130   -2.9040    0.7030 hn        1 MOL      0.021556
     77 H30        -2.6780   -4.8930    2.6420 h1        1 MOL      0.041965
     78 H31        -1.2470   -5.7560    1.1620 h1        1 MOL     -0.045116
     79 H32        -2.6030   -4.1180   -0.7050 ho        1 MOL      0.400191
     80 H33        -3.4480   -6.9390    1.1990 hc        1 MOL      0.149071
     81 H34        -4.0410   -5.9060   -0.1010 hc        1 MOL      0.149071
     82 H35        -2.8020   -6.9540   -0.5200 hc        1 MOL      0.149071
     83 N9         -0.3320   -3.5310    2.5770 n         1 MOL     -0.316343
     84 C26         0.9420   -2.8230    2.4380 c3        1 MOL     -0.004680
     85 C27         1.5640   -3.1670    1.1010 c         1 MOL      0.805026
     86 O15         1.8790   -4.2820    0.8790 o         1 MOL     -0.610011
     87 C28         1.8750   -2.9130    3.6150 c3        1 MOL     -0.019173
     88 C29         1.2590   -2.2600    4.8640 c3        1 MOL      0.139677
     89 C30         3.2930   -2.3660    3.4550 c3        1 MOL     -0.151267
     90 C31         1.7210   -2.6250    6.2200 c3        1 MOL     -0.132548
     91 H36        -0.2090   -4.4420    2.9910 hn        1 MOL      0.235466
     92 H37         0.6960   -1.7680    2.3250 h1        1 MOL      0.007462
     93 H38         2.0510   -3.9900    3.6720 hc        1 MOL     -0.006743
     94 H39         0.1840   -2.4620    4.8340 hc        1 MOL     -0.004442
     95 H40         1.4010   -1.1770    4.8210 hc        1 MOL     -0.004442
     96 H41         3.8550   -2.3990    4.3860 hc        1 MOL      0.040983
     97 H42         3.8370   -2.8690    2.6600 hc        1 MOL      0.040983
     98 H43         3.2710   -1.3380    3.0950 hc        1 MOL      0.040983
     99 H44         1.5070   -3.6750    6.4090 hc        1 MOL      0.018665
    100 H45         2.7590   -2.3370    6.3300 hc        1 MOL      0.018665
    101 H46         1.0560   -2.1460    6.9400 hc        1 MOL      0.018665
    102 N10         1.7850   -2.1730    0.2380 n         1 MOL     -0.458312
    103 C32         2.6520   -2.1910   -0.9400 c3        1 MOL      0.094848
    104 C33         4.0170   -1.7230   -0.6260 c         1 MOL      0.514476
    105 O16         4.3330   -1.0540    0.3750 o         1 MOL     -0.402296
    106 C34         2.0470   -1.4570   -2.1490 c3        1 MOL     -0.384154
    107 C35         0.5660   -1.7880   -2.2940 c         1 MOL      0.894124
    108 O17        -0.1990   -1.0690   -1.6760 o         1 MOL     -0.720640
    109 O18         0.2250   -2.6020   -3.1730 o         1 MOL     -0.720640
    110 H47         1.5050   -1.2320    0.4700 hn        1 MOL      0.077043
    111 H48         2.8010   -3.2300   -1.2450 h1        1 MOL      0.060029
    112 H49         2.6110   -1.5210   -3.0790 hc        1 MOL      0.104706
    113 H50         2.1470   -0.4020   -1.8800 hc        1 MOL      0.104706
    114 N11         5.0430   -1.9660   -1.4580 n         1 MOL     -0.628251
    115 C36         6.4410   -1.5730   -1.1690 c3        1 MOL      0.307590
    116 C37         6.7180   -0.1130   -1.0620 c         1 MOL      0.269693
    117 O19         7.5380    0.2810   -0.2060 o         1 MOL     -0.449617
    118 C38         7.3320   -2.3160   -2.1710 c3        1 MOL     -0.322795
    119 C39         8.7490   -1.7550   -2.2450 ca        1 MOL      0.291114
    120 C40         9.0510   -0.9940   -3.3960 ca        1 MOL     -0.344516
    121 C41         9.7350   -2.1270   -1.2440 ca        1 MOL     -0.344516
    122 C42        10.3350   -0.4140   -3.3940 ca        1 MOL      0.091794
    123 C43        11.0070   -1.4560   -1.2610 ca        1 MOL      0.091794
    124 C44        11.2650   -0.6890   -2.4080 ca        1 MOL     -0.333139
    125 H51         4.9270   -2.6100   -2.2160 hn        1 MOL      0.328308
    126 H52         6.6820   -1.9900   -0.1910 h1        1 MOL      0.075693
    127 H53         6.8670   -2.2120   -3.1580 hc        1 MOL      0.090312
    128 H54         7.4600   -3.3730   -1.9210 hc        1 MOL      0.090312
    129 H55         8.3470   -0.7440   -4.1780 ha        1 MOL      0.157814
    130 H56         9.3690   -2.9160   -0.5960 ha        1 MOL      0.157814
    131 H57        10.7000    0.2170   -4.2020 ha        1 MOL      0.073833
    132 H58        11.7660   -1.6460   -0.5270 ha        1 MOL      0.073833
    133 H59        12.2090   -0.1680   -2.4270 ha        1 MOL      0.138968
    134 N12         6.0450    0.7740   -1.8930 n         1 MOL     -0.069892
    135 C45         6.0490    2.2730   -1.6810 c3        1 MOL      0.067864
    136 C46         5.5220    2.7580   -0.3060 c         1 MOL      0.275382
    137 O20         5.8390    3.8790    0.1110 o         1 MOL     -0.499411
    138 C47         5.3550    2.9120   -2.8560 c3        1 MOL     -0.044578
    139 C48         4.4820    1.8100   -3.3650 c3        1 MOL     -0.032389
    140 C49         5.3190    0.5430   -3.1080 c3        1 MOL      0.008302
    141 H60         7.0980    2.5470   -1.7810 h1        1 MOL      0.041150
    142 H61         4.9020    3.8690   -2.6020 hc        1 MOL      0.037630
    143 H62         6.1470    3.1170   -3.5780 hc        1 MOL      0.037630
    144 H63         3.5350    1.8360   -2.8250 hc        1 MOL      0.037014
    145 H64         4.3300    1.8980   -4.4460 hc        1 MOL      0.037014
    146 H65         4.6420   -0.2990   -3.0390 h1        1 MOL      0.007087
    147 H66         6.0410    0.4120   -3.9150 h1        1 MOL      0.007087
    148 N13         4.6560    1.9310    0.3150 n         1 MOL     -0.064494
    149 C50         4.0240    2.1850    1.6060 c3        1 MOL     -0.151053
    150 C51         4.8420    1.4740    2.7620 c         1 MOL      0.394242
    151 O21         4.6910    1.7570    3.9570 o         1 MOL     -0.541996
    152 C52         2.6380    1.6160    1.6140 c3        1 MOL      0.016000
    153 C53         1.7160    2.1850    0.5450 c3        1 MOL      0.096276
    154 C54         0.3580    1.4880    0.4810 c         1 MOL      0.433415
    155 O22        -0.4800    1.9540   -0.3070 o         1 MOL     -0.641851
    156 O23         0.0450    0.5320    1.1930 o         1 MOL     -0.641851
    157 H67         4.3610    1.1420   -0.2450 hn        1 MOL      0.172399
    158 H68         3.8960    3.2430    1.8430 h1        1 MOL      0.120173
    159 H69         2.2330    1.6850    2.6180 hc        1 MOL      0.052067
    160 H70         2.7200    0.5560    1.3740 hc        1 MOL      0.052067
    161 H71         2.1270    2.2310   -0.4650 hc        1 MOL      0.016713
    162 H72         1.5920    3.2470    0.7750 hc        1 MOL      0.016713
    163 N14         5.7490    0.5490    2.3970 n         1 MOL     -0.013298
    164 C55         6.6760   -0.1280    3.2860 c3        1 MOL     -0.124334
    165 H73         6.1810   -0.9850    3.7420 h1        1 MOL      0.055302
    166 H74         7.5410   -0.4700    2.7170 h1        1 MOL      0.055302
    167 H75         7.0020    0.5600    4.0650 h1        1 MOL      0.055302
    168 H76         5.8880    0.3120    1.4200 hn        1 MOL      0.011250
    169 Ca1        -2.2050   -0.0920   -0.3130 Ca        1 MOL      1.783920
    170 O24        -4.7250   -0.4900    1.2340 oh        1 MOL     -0.729571
    171 H77        -4.0480   -0.5220    1.9060 ho        1 MOL      0.353294
    172 H78        -5.1150    0.3720    1.3250 ho        1 MOL      0.353294
    173 O25        -2.1390    0.2240    2.6140 oh        1 MOL     -0.729571
    174 H79        -1.2380    0.1560    2.2840 ho        1 MOL      0.353294
    175 H80        -2.0770   -0.0520    3.5270 ho        1 MOL      0.353294
@<TRIPOS>BOND
     1    1    2 1   
     2    1    4 1   
     3    1    5 1   
     4    1    6 1   
     5    2    3 2   
     6    2    7 1   
     7    7    8 1   
     8    7   15 1   
     9    8    9 1   
    10    8   11 1   
    11    8   16 1   
    12    9   10 2   
    13    9   19 1   
    14   11   12 1   
    15   11   17 1   
    16   11   18 1   
    17   12   13 1   
    18   12   14 1   
    19   19   20 1   
    20   19   24 1   
    21   20   21 1   
    22   20   23 1   
    23   20   25 1   
    24   21   22 2   
    25   21   29 1   
    26   23   26 1   
    27   23   27 1   
    28   23   28 1   
    29   29   30 1   
    30   29   37 1   
    31   30   31 1   
    32   30   33 1   
    33   30   38 1   
    34   31   32 2   
    35   31   41 1   
    36   33   34 1   
    37   33   39 1   
    38   33   40 1   
    39   34   35 1   
    40   34   36 1   
    41   41   42 1   
    42   41   45 1   
    43   42   43 1   
    44   42   46 1   
    45   42   47 1   
    46   43   44 2   
    47   43   48 1   
    48   48   49 1   
    49   48   56 1   
    50   49   50 1   
    51   49   52 1   
    52   49   57 1   
    53   50   51 2   
    54   50   62 1   
    55   52   53 1   
    56   52   58 1   
    57   52   59 1   
    58   53   54 1   
    59   53   55 2   
    60   54   60 1   
    61   54   61 1   
    62   62   63 1   
    63   62   66 1   
    64   63   64 1   
    65   63   67 1   
    66   63   68 1   
    67   64   65 2   
    68   64   69 1   
    69   69   70 1   
    70   69   76 1   
    71   70   71 1   
    72   70   73 1   
    73   70   77 1   
    74   71   72 2   
    75   71   83 1   
    76   73   74 1   
    77   73   75 1   
    78   73   78 1   
    79   74   80 1   
    80   74   81 1   
    81   74   82 1   
    82   75   79 1   
    83   83   84 1   
    84   83   91 1   
    85   84   85 1   
    86   84   87 1   
    87   84   92 1   
    88   85   86 2   
    89   85  102 1   
    90   87   88 1   
    91   87   89 1   
    92   87   93 1   
    93   88   90 1   
    94   88   94 1   
    95   88   95 1   
    96   89   96 1   
    97   89   97 1   
    98   89   98 1   
    99   90   99 1   
   100   90  100 1   
   101   90  101 1   
   102  102  103 1   
   103  102  110 1   
   104  103  104 1   
   105  103  106 1   
   106  103  111 1   
   107  104  105 2   
   108  104  114 1   
   109  106  107 1   
   110  106  112 1   
   111  106  113 1   
   112  107  108 1   
   113  107  109 1   
   114  114  115 1   
   115  114  125 1   
   116  115  116 1   
   117  115  118 1   
   118  115  126 1   
   119  116  117 2   
   120  116  134 1   
   121  118  119 1   
   122  118  127 1   
   123  118  128 1   
   124  119  120 ar  
   125  119  121 ar  
   126  120  122 ar  
   127  120  129 1   
   128  121  123 ar  
   129  121  130 1   
   130  122  124 ar  
   131  122  131 1   
   132  123  124 ar  
   133  123  132 1   
   134  124  133 1   
   135  134  135 1   
   136  134  140 1   
   137  135  136 1   
   138  135  138 1   
   139  135  141 1   
   140  136  137 2   
   141  136  148 1   
   142  138  139 1   
   143  138  142 1   
   144  138  143 1   
   145  139  140 1   
   146  139  144 1   
   147  139  145 1   
   148  140  146 1   
   149  140  147 1   
   150  148  149 1   
   151  148  157 1   
   152  149  150 1   
   153  149  152 1   
   154  149  158 1   
   155  150  151 2   
   156  150  163 1   
   157  152  153 1   
   158  152  159 1   
   159  152  160 1   
   160  153  154 1   
   161  153  161 1   
   162  153  162 1   
   163  154  155 1   
   164  154  156 1   
   165  163  164 1   
   166  163  168 1   
   167  164  165 1   
   168  164  166 1   
   169  164  167 1   
   170  170  171 1   
   171  170  172 1   
   172  173  174 1   
   173  173  175 1   
@<TRIPOS>SUBSTRUCTURE
     1 MOL         1 TEMP              0 ****  ****    0 ROOT
