@<TRIPOS>MOLECULE
MOL
  186   183     1     0     0
SMALL
resp


@<TRIPOS>ATOM
      1 C1          0.5760   -1.5680    6.2740 c3        1 MOL     -0.354671
      2 C2          0.7870   -1.7900    4.7760 c         1 MOL      0.678116
      3 O1         -0.0550   -2.4390    4.1210 o         1 MOL     -0.537538
      4 H1          1.4700   -1.1170    6.7030 hc        1 MOL      0.082441
      5 H2         -0.2740   -0.9030    6.4270 hc        1 MOL      0.082441
      6 H3          0.3820   -2.5230    6.7600 hc        1 MOL      0.082441
      7 N1          1.9250   -1.2810    4.2550 n         1 MOL     -0.569817
      8 C3          2.4980   -1.4060    2.9120 c3        1 MOL      0.260832
      9 C4          2.8200   -2.9070    2.5960 c         1 MOL      0.624762
     10 O2          3.4210   -3.5340    3.4680 o         1 MOL     -0.598282
     11 C5          3.7170   -0.5020    2.8540 c3        1 MOL     -0.353028
     12 C6          4.4520   -0.5590    1.5500 c         1 MOL      0.771673
     13 O3          5.6420   -0.3020    1.6910 o         1 MOL     -0.652631
     14 O4          3.9220   -0.9740    0.4730 o         1 MOL     -0.652631
     15 H4          2.5870   -0.9780    4.9620 hn        1 MOL      0.294476
     16 H5          1.7330   -1.0050    2.2500 h1        1 MOL     -0.026279
     17 H6          4.3120   -0.8310    3.7110 hc        1 MOL      0.070866
     18 H7          3.4600    0.5520    2.9790 hc        1 MOL      0.070866
     19 N2          2.3060   -3.4180    1.4690 n         1 MOL     -0.415841
     20 C7          2.3740   -4.8950    1.1060 c3        1 MOL     -0.007840
     21 C8          3.4980   -5.2350    0.0760 c         1 MOL      0.494741
     22 O5          4.0510   -6.3140    0.0190 o         1 MOL     -0.574484
     23 C9          0.9480   -5.3750    0.6390 c3        1 MOL      0.192272
     24 C10        -0.0380   -5.6310    1.8560 c3        1 MOL      0.034863
     25 C11         1.0210   -6.8250    0.0130 c3        1 MOL     -0.401884
     26 C12        -1.5220   -5.5850    1.4950 c3        1 MOL     -0.153528
     27 H8          1.8430   -2.7620    0.8520 hn        1 MOL      0.143685
     28 H9          2.5960   -5.4900    1.9910 h1        1 MOL      0.051469
     29 H10         0.5510   -4.6950   -0.1230 hc        1 MOL      0.050677
     30 H11         0.0850   -4.7860    2.5340 hc        1 MOL      0.002722
     31 H12         0.2010   -6.5430    2.4110 hc        1 MOL      0.002722
     32 H13         1.5140   -7.5280    0.6870 hc        1 MOL      0.087497
     33 H14         0.0030   -7.1290   -0.2050 hc        1 MOL      0.087497
     34 H15         1.5710   -6.7510   -0.9340 hc        1 MOL      0.087497
     35 H16        -1.9790   -5.3690    2.4560 hc        1 MOL      0.032695
     36 H17        -1.8300   -4.6810    0.9640 hc        1 MOL      0.032695
     37 H18        -1.9500   -6.5340    1.1600 hc        1 MOL      0.032695
     38 N3          3.7780   -4.2330   -0.7600 n         1 MOL     -0.314529
     39 C13         4.7250   -4.2990   -1.9280 c3        1 MOL      0.173705
     40 C14         6.0190   -3.5660   -1.7390 c         1 MOL      0.374491
     41 O6          6.9260   -3.8060   -2.5570 o         1 MOL     -0.578164
     42 C15         4.0430   -4.0240   -3.2800 c3        1 MOL     -0.291691
     43 C16         3.1600   -2.7890   -3.1820 c         1 MOL      0.723667
     44 O7          3.4840   -1.8170   -2.4370 o         1 MOL     -0.666671
     45 O8          2.1260   -2.7200   -3.8560 o         1 MOL     -0.666671
     46 H19         3.3150   -3.3550   -0.5840 hn        1 MOL      0.206194
     47 H20         5.0380   -5.3420   -2.0070 h1        1 MOL      0.056264
     48 H21         3.3980   -4.8780   -3.4760 hc        1 MOL      0.074405
     49 H22         4.8020   -3.9410   -4.0550 hc        1 MOL      0.074405
     50 N4          6.1230   -2.7530   -0.7650 n         1 MOL     -0.138547
     51 C17         7.4060   -2.3860   -0.1880 c3        1 MOL     -0.198094
     52 C18         7.9170   -0.9680   -0.6790 c         1 MOL      0.497519
     53 O9          9.1190   -0.6330   -0.5790 o         1 MOL     -0.624484
     54 H23         5.2910   -2.3920   -0.3040 hn        1 MOL      0.144370
     55 H24         8.1470   -3.1280   -0.4840 h1        1 MOL      0.106477
     56 H25         7.2680   -2.4300    0.8860 h1        1 MOL      0.106477
     57 N5          7.0010   -0.1350   -1.0650 n         1 MOL     -0.094689
     58 C19         7.2920    1.1660   -1.6970 c3        1 MOL      0.034360
     59 C20         7.2630    2.2750   -0.6870 c         1 MOL      0.349414
     60 O10         7.5720    3.4610   -1.0390 o         1 MOL     -0.553528
     61 C21         6.3140    1.4630   -2.8720 c3        1 MOL     -0.337558
     62 C22         4.8760    1.5890   -2.4690 c         1 MOL      0.866365
     63 O11         4.4710    1.4160   -1.3420 o         1 MOL     -0.784024
     64 O12         3.9840    1.7660   -3.3600 o         1 MOL     -0.784024
     65 H26         6.0430   -0.4580   -1.0660 hn        1 MOL      0.088662
     66 H27         8.2870    1.1730   -2.1380 h1        1 MOL      0.093670
     67 H28         6.4700    0.6670   -3.6000 hc        1 MOL      0.096524
     68 H29         6.6630    2.3970   -3.3210 hc        1 MOL      0.096524
     69 N6          6.9180    1.9540    0.5720 n         1 MOL     -0.118072
     70 C23         6.9680    2.8820    1.6560 c3        1 MOL     -0.160889
     71 C24         5.7120    3.8180    1.6280 c         1 MOL      0.551674
     72 O13         5.7590    4.8640    2.2630 o         1 MOL     -0.600326
     73 H30         6.7050    0.9850    0.7740 hn        1 MOL      0.195375
     74 H31         7.8430    3.5260    1.6310 h1        1 MOL      0.084274
     75 H32         6.8910    2.3750    2.6160 h1        1 MOL      0.084274
     76 N7          4.5750    3.4900    0.9710 n         1 MOL     -0.394127
     77 C25         3.2670    4.2050    1.1720 c3        1 MOL      0.069675
     78 C26         2.1220    3.1800    1.1440 c         1 MOL      0.619517
     79 O14         2.2830    2.0350    0.7780 o         1 MOL     -0.680356
     80 C27         3.0730    5.2120    0.0650 c3        1 MOL     -0.082228
     81 C28         3.9180    6.4920    0.1260 c3        1 MOL     -0.213009
     82 C29         3.5360    7.5790   -0.8240 c         1 MOL      0.648922
     83 N8          4.2320    7.6970   -1.9370 n         1 MOL     -0.806035
     84 O15         2.6040    8.3550   -0.6570 o         1 MOL     -0.591763
     85 H33         4.5940    2.6170    0.4790 hn        1 MOL      0.331873
     86 H34         3.3270    4.7630    2.1070 h1        1 MOL      0.058102
     87 H35         2.0230    5.4730   -0.0820 hc        1 MOL      0.059276
     88 H36         3.3740    4.6980   -0.8430 hc        1 MOL      0.059276
     89 H37         4.9500    6.1700    0.0110 hc        1 MOL      0.087431
     90 H38         3.7100    6.9320    1.0990 hc        1 MOL      0.087431
     91 H39         4.8610    6.9580   -2.2300 hn        1 MOL      0.364237
     92 H40         3.7870    8.3470   -2.5660 hn        1 MOL      0.364237
     93 N9          0.9910    3.5680    1.6730 n         1 MOL     -0.567344
     94 C30        -0.1960    2.6880    1.8040 c3        1 MOL      0.249160
     95 C31        -1.2920    3.1820    0.8230 c         1 MOL      0.348657
     96 O16        -1.6500    4.3560    0.9430 o         1 MOL     -0.553472
     97 C32        -0.8280    2.6490    3.2300 c3        1 MOL      0.368272
     98 C33        -1.8200    1.5030    3.4380 c3        1 MOL     -0.379111
     99 C34         0.3190    2.3560    4.1660 c3        1 MOL     -0.379111
    100 H41         0.9010    4.5720    1.7490 hn        1 MOL      0.279238
    101 H42         0.0810    1.6930    1.4640 h1        1 MOL      0.104627
    102 H43        -1.3630    3.5870    3.3270 hc        1 MOL     -0.068567
    103 H44        -1.4180    0.5730    3.0180 hc        1 MOL      0.069776
    104 H45        -1.9840    1.4120    4.5110 hc        1 MOL      0.069776
    105 H46        -2.8030    1.7630    3.0510 hc        1 MOL      0.069776
    106 H47         0.7030    1.3710    3.9100 hc        1 MOL      0.069776
    107 H48         0.9990    3.2000    4.1440 hc        1 MOL      0.069776
    108 H49        -0.0810    2.3760    5.1820 hc        1 MOL      0.069776
    109 N10        -1.7990    2.3190   -0.0640 n         1 MOL     -0.273629
    110 C35        -3.0350    2.5990   -0.7780 c3        1 MOL      0.148176
    111 C36        -4.3040    2.1670   -0.0060 c         1 MOL      0.432297
    112 O17        -4.2550    1.5820    1.0470 o         1 MOL     -0.360611
    113 C37        -2.8880    1.9320   -2.1730 c3        1 MOL     -0.190148
    114 C38        -4.0180    2.2510   -3.1110 c         1 MOL      0.629118
    115 N11        -4.0090    3.5150   -3.5700 n         1 MOL     -0.770061
    116 O18        -4.8770    1.4830   -3.3760 o         1 MOL     -0.506109
    117 H50        -1.3280    1.4320   -0.2310 hn        1 MOL      0.190691
    118 H51        -3.0790    3.6790   -0.9250 h1        1 MOL      0.017022
    119 H52        -2.7360    0.8810   -1.8970 hc        1 MOL      0.074579
    120 H53        -1.9430    2.1870   -2.6550 hc        1 MOL      0.074579
    121 H54        -3.2540    4.1490   -3.3770 hn        1 MOL      0.354674
    122 H55        -4.7850    3.7050   -4.1890 hn        1 MOL      0.354674
    123 N12        -5.4230    2.5510   -0.6050 n         1 MOL     -0.565331
    124 C39        -6.6960    2.0920   -0.0950 c3        1 MOL      0.331384
    125 C40        -6.7760    0.5570   -0.0700 c         1 MOL      0.741267
    126 O19        -7.1390   -0.0120    0.9600 o         1 MOL     -0.575076
    127 C41        -7.8790    2.8440   -0.7270 c3        1 MOL     -0.194315
    128 C42        -9.2540    2.2330   -0.5070 ca        1 MOL     -0.009591
    129 C43        -9.8630    2.3230    0.7550 ca        1 MOL     -0.173951
    130 C44        -9.7730    1.3920   -1.4730 ca        1 MOL     -0.173951
    131 C45       -11.0710    1.7140    1.1030 ca        1 MOL     -0.195506
    132 C46       -11.0810    0.9000   -1.2520 ca        1 MOL     -0.195506
    133 C47       -11.7030    0.9760    0.0210 ca        1 MOL      0.247979
    134 O20       -12.8290    0.2680    0.2860 oh        1 MOL     -0.466817
    135 H56        -5.4410    3.0310   -1.4970 hn        1 MOL      0.233889
    136 H57        -6.6990    2.2970    0.9820 h1        1 MOL     -0.028889
    137 H58        -7.7520    2.7820   -1.8060 hc        1 MOL      0.063910
    138 H59        -8.0280    3.8570   -0.3430 hc        1 MOL      0.063910
    139 H60        -9.4890    3.0080    1.5090 ha        1 MOL      0.140308
    140 H61        -9.2330    1.2350   -2.4000 ha        1 MOL      0.140308
    141 H62       -11.6040    1.9140    2.0210 ha        1 MOL      0.129144
    142 H63       -11.5750    0.2680   -1.9780 ha        1 MOL      0.129144
    143 H64       -13.1540   -0.2620   -0.4450 ho        1 MOL      0.354454
    144 N13        -6.2340   -0.0970   -1.1030 n         1 MOL     -0.422172
    145 C48        -6.1910   -1.5270   -1.3220 c3        1 MOL     -0.193372
    146 C49        -5.5030   -2.2420   -0.1700 c         1 MOL      0.408402
    147 O21        -5.9260   -3.2960    0.2700 o         1 MOL     -0.505165
    148 C50        -5.6560   -1.8410   -2.7400 c3        1 MOL      0.109631
    149 C51        -5.6280   -3.3240   -3.1610 c3        1 MOL     -0.247229
    150 C52        -4.7270   -3.4280   -4.3910 c         1 MOL      0.714994
    151 O22        -5.2460   -3.0800   -5.4350 o         1 MOL     -0.738984
    152 O23        -3.5290   -3.7010   -4.1490 o         1 MOL     -0.738984
    153 H65        -5.8500    0.4510   -1.8650 hn        1 MOL      0.200789
    154 H66        -7.2210   -1.8740   -1.3800 h1        1 MOL      0.104521
    155 H67        -4.6970   -1.3380   -2.6500 hc        1 MOL      0.022676
    156 H68        -6.1740   -1.2130   -3.4620 hc        1 MOL      0.022676
    157 H69        -6.6340   -3.6990   -3.3540 hc        1 MOL      0.033166
    158 H70        -5.1990   -3.9560   -2.3890 hc        1 MOL      0.033166
    159 N14        -4.4460   -1.6550    0.4770 n         1 MOL     -0.198760
    160 C53        -3.6640   -2.1670    1.5420 c3        1 MOL      0.005898
    161 C54        -4.2560   -1.7940    2.9570 c         1 MOL      0.399808
    162 O24        -4.2690   -2.6410    3.8370 o         1 MOL     -0.556359
    163 C55        -2.2800   -1.4440    1.3780 c3        1 MOL      0.039050
    164 C56        -1.4840   -1.9320    0.1150 c3        1 MOL      0.004312
    165 C57        -0.1870   -1.1640   -0.1170 c         1 MOL      0.631546
    166 O25         0.8740   -1.7430   -0.3090 o         1 MOL     -0.681155
    167 O26        -0.2740    0.0660   -0.3710 o         1 MOL     -0.681155
    168 H71        -4.0490   -0.8810   -0.0370 hn        1 MOL      0.248044
    169 H72        -3.5630   -3.2510    1.4670 h1        1 MOL      0.080639
    170 H73        -1.7110   -1.6180    2.2960 hc        1 MOL      0.011324
    171 H74        -2.4190   -0.3680    1.4310 hc        1 MOL      0.011324
    172 H75        -2.0710   -1.8140   -0.7980 hc        1 MOL     -0.000404
    173 H76        -1.2590   -2.9790    0.2800 hc        1 MOL     -0.000404
    174 N15        -4.7810   -0.5870    3.0670 n         1 MOL     -0.013276
    175 C58        -5.5700   -0.1210    4.1930 c3        1 MOL     -0.169949
    176 H77        -4.9130    0.3470    4.9270 h1        1 MOL      0.061810
    177 H78        -6.3030    0.6080    3.8460 h1        1 MOL      0.061810
    178 H79        -6.0840   -0.9650    4.6520 h1        1 MOL      0.061810
    179 H80        -4.6300    0.0500    2.2970 hn        1 MOL      0.053770
    180 Ca1         2.3010    0.1490   -1.2740 Ca        1 MOL      1.763385
    181 O27         1.5260    2.2320   -2.5730 oh        1 MOL     -0.911237
    182 H81         2.3610    2.4060   -2.9950 ho        1 MOL      0.422124
    183 H82         0.8700    2.3920   -3.2470 ho        1 MOL      0.422124
    184 O28         0.7750   -0.6250   -3.2970 oh        1 MOL     -0.911237
    185 H83        -0.1700   -0.6190   -3.4150 ho        1 MOL      0.422124
    186 H84         1.0250   -1.5330   -3.4810 ho        1 MOL      0.422124
@<TRIPOS>BOND
     1    1    2 1   
     2    1    4 1   
     3    1    5 1   
     4    1    6 1   
     5    2    3 2   
     6    2    7 1   
     7    7    8 1   
     8    7   15 1   
     9    8    9 1   
    10    8   11 1   
    11    8   16 1   
    12    9   10 2   
    13    9   19 1   
    14   11   12 1   
    15   11   17 1   
    16   11   18 1   
    17   12   13 1   
    18   12   14 1   
    19   19   20 1   
    20   19   27 1   
    21   20   21 1   
    22   20   23 1   
    23   20   28 1   
    24   21   22 2   
    25   21   38 1   
    26   23   24 1   
    27   23   25 1   
    28   23   29 1   
    29   24   26 1   
    30   24   30 1   
    31   24   31 1   
    32   25   32 1   
    33   25   33 1   
    34   25   34 1   
    35   26   35 1   
    36   26   36 1   
    37   26   37 1   
    38   38   39 1   
    39   38   46 1   
    40   39   40 1   
    41   39   42 1   
    42   39   47 1   
    43   40   41 2   
    44   40   50 1   
    45   42   43 1   
    46   42   48 1   
    47   42   49 1   
    48   43   44 1   
    49   43   45 1   
    50   50   51 1   
    51   50   54 1   
    52   51   52 1   
    53   51   55 1   
    54   51   56 1   
    55   52   53 2   
    56   52   57 1   
    57   57   58 1   
    58   57   65 1   
    59   58   59 1   
    60   58   61 1   
    61   58   66 1   
    62   59   60 2   
    63   59   69 1   
    64   61   62 1   
    65   61   67 1   
    66   61   68 1   
    67   62   63 1   
    68   62   64 1   
    69   69   70 1   
    70   69   73 1   
    71   70   71 1   
    72   70   74 1   
    73   70   75 1   
    74   71   72 2   
    75   71   76 1   
    76   76   77 1   
    77   76   85 1   
    78   77   78 1   
    79   77   80 1   
    80   77   86 1   
    81   78   79 2   
    82   78   93 1   
    83   80   81 1   
    84   80   87 1   
    85   80   88 1   
    86   81   82 1   
    87   81   89 1   
    88   81   90 1   
    89   82   83 1   
    90   82   84 2   
    91   83   91 1   
    92   83   92 1   
    93   93   94 1   
    94   93  100 1   
    95   94   95 1   
    96   94   97 1   
    97   94  101 1   
    98   95   96 2   
    99   95  109 1   
   100   97   98 1   
   101   97   99 1   
   102   97  102 1   
   103   98  103 1   
   104   98  104 1   
   105   98  105 1   
   106   99  106 1   
   107   99  107 1   
   108   99  108 1   
   109  109  110 1   
   110  109  117 1   
   111  110  111 1   
   112  110  113 1   
   113  110  118 1   
   114  111  112 2   
   115  111  123 1   
   116  113  114 1   
   117  113  119 1   
   118  113  120 1   
   119  114  115 1   
   120  114  116 2   
   121  115  121 1   
   122  115  122 1   
   123  123  124 1   
   124  123  135 1   
   125  124  125 1   
   126  124  127 1   
   127  124  136 1   
   128  125  126 2   
   129  125  144 1   
   130  127  128 1   
   131  127  137 1   
   132  127  138 1   
   133  128  129 ar  
   134  128  130 ar  
   135  129  131 ar  
   136  129  139 1   
   137  130  132 ar  
   138  130  140 1   
   139  131  133 ar  
   140  131  141 1   
   141  132  133 ar  
   142  132  142 1   
   143  133  134 1   
   144  134  143 1   
   145  144  145 1   
   146  144  153 1   
   147  145  146 1   
   148  145  148 1   
   149  145  154 1   
   150  146  147 2   
   151  146  159 1   
   152  148  149 1   
   153  148  155 1   
   154  148  156 1   
   155  149  150 1   
   156  149  157 1   
   157  149  158 1   
   158  150  151 1   
   159  150  152 1   
   160  159  160 1   
   161  159  168 1   
   162  160  161 1   
   163  160  163 1   
   164  160  169 1   
   165  161  162 2   
   166  161  174 1   
   167  163  164 1   
   168  163  170 1   
   169  163  171 1   
   170  164  165 1   
   171  164  172 1   
   172  164  173 1   
   173  165  166 1   
   174  165  167 1   
   175  174  175 1   
   176  174  179 1   
   177  175  176 1   
   178  175  177 1   
   179  175  178 1   
   180  181  182 1   
   181  181  183 1   
   182  184  185 1   
   183  184  186 1   
@<TRIPOS>SUBSTRUCTURE
     1 MOL         1 TEMP              0 ****  ****    0 ROOT
