@<TRIPOS>MOLECULE
MOL
  175   173     1     0     0
SMALL
resp


@<TRIPOS>ATOM
      1 C1          0.5840    3.8040    5.4290 c3        1 MOL     -0.357562
      2 C2          0.0340    3.9390    4.0200 c         1 MOL      0.702522
      3 O1          0.7800    4.1720    3.0870 o         1 MOL     -0.547115
      4 H1         -0.1200    3.2390    6.0410 hc        1 MOL      0.085112
      5 H2          1.5390    3.2800    5.3980 hc        1 MOL      0.085112
      6 H3          0.7250    4.7950    5.8600 hc        1 MOL      0.085112
      7 N1         -1.2500    3.6550    3.8340 n         1 MOL     -0.614633
      8 C3         -1.9320    3.4740    2.5630 c3        1 MOL      0.098924
      9 C4         -1.9280    4.7130    1.6780 c         1 MOL      0.658981
     10 O2         -2.0560    5.8430    2.1820 o         1 MOL     -0.579456
     11 C5         -3.3560    2.9900    2.8300 c3        1 MOL     -0.292029
     12 C6         -4.0870    2.2490    1.7470 c         1 MOL      0.819485
     13 O3         -5.2250    1.7790    2.0120 o         1 MOL     -0.679397
     14 O4         -3.4600    1.8820    0.7320 o         1 MOL     -0.679397
     15 H4         -1.8180    3.5490    4.6610 hn        1 MOL      0.323048
     16 H5         -1.3800    2.6840    2.0560 h1        1 MOL      0.119439
     17 H6         -3.9850    3.7810    3.2380 hc        1 MOL      0.050575
     18 H7         -3.2250    2.2780    3.6540 hc        1 MOL      0.050575
     19 N2         -1.9770    4.5260    0.3530 n         1 MOL     -0.705212
     20 C7         -2.3690    5.6220   -0.5700 c3        1 MOL      0.550145
     21 C8         -3.4020    5.1570   -1.5870 c         1 MOL      0.182957
     22 O5         -3.8760    5.9840   -2.4630 o         1 MOL     -0.533147
     23 C9         -1.1290    6.2830   -1.1440 c3        1 MOL     -0.362766
     24 H8         -1.9400    3.6550   -0.1540 hn        1 MOL      0.361068
     25 H9         -2.7920    6.4300    0.0240 h1        1 MOL     -0.019718
     26 H10        -0.8190    5.6430   -1.9750 hc        1 MOL      0.085462
     27 H11        -1.4700    7.2390   -1.5270 hc        1 MOL      0.085462
     28 H12        -0.3960    6.4860   -0.3630 hc        1 MOL      0.085462
     29 N3         -3.8340    3.8540   -1.5940 n         1 MOL     -0.118040
     30 C10        -4.8000    3.4140   -2.5980 c3        1 MOL      0.162855
     31 C11        -6.0720    2.7670   -2.0450 c         1 MOL      0.351001
     32 O6         -7.0130    2.8080   -2.7690 o         1 MOL     -0.549234
     33 C12        -4.1020    2.5420   -3.6660 c3        1 MOL     -0.183383
     34 C13        -3.4260    1.3080   -3.0080 c         1 MOL      0.603708
     35 O7         -3.8220    0.7810   -1.9600 o         1 MOL     -0.657594
     36 O8         -2.2940    1.0180   -3.4420 o         1 MOL     -0.657594
     37 H13        -3.6580    3.1510   -0.8820 hn        1 MOL      0.090191
     38 H14        -5.1850    4.2470   -3.1810 h1        1 MOL      0.058054
     39 H15        -3.4810    3.2010   -4.2870 hc        1 MOL      0.049489
     40 H16        -4.8050    2.1540   -4.4070 hc        1 MOL      0.049489
     41 N4         -6.1120    2.2640   -0.8280 n         1 MOL     -0.126934
     42 C14        -7.2610    1.4930   -0.3090 c3        1 MOL     -0.270611
     43 C15        -7.2730   -0.0530   -0.6630 c         1 MOL      0.597822
     44 O9         -8.2760   -0.6440   -0.2840 o         1 MOL     -0.623331
     45 H17        -5.2320    2.1140   -0.3590 hn        1 MOL      0.013767
     46 H18        -8.2030    1.9110   -0.6450 h1        1 MOL      0.140442
     47 H19        -7.2310    1.5480    0.7810 h1        1 MOL      0.140442
     48 N5         -6.3770   -0.6730   -1.3860 n         1 MOL     -0.390839
     49 C16        -6.4610   -2.1970   -1.8370 c3        1 MOL      0.009841
     50 C17        -6.5240   -3.1830   -0.6610 c         1 MOL      0.511542
     51 O10        -6.9000   -4.3710   -0.9150 o         1 MOL     -0.583491
     52 C18        -5.3820   -2.4710   -2.8440 c3        1 MOL     -0.194803
     53 C19        -3.9750   -2.3400   -2.2990 c         1 MOL      0.571425
     54 N6         -3.0160   -2.5540   -3.0990 n         1 MOL     -0.560887
     55 O11        -3.6740   -2.0550   -1.1500 o         1 MOL     -0.562306
     56 H20        -5.5470   -0.1460   -1.6210 hn        1 MOL      0.295010
     57 H21        -7.4470   -2.3900   -2.2600 h1        1 MOL      0.088776
     58 H22        -5.5510   -1.8460   -3.7150 hc        1 MOL      0.074804
     59 H23        -5.5030   -3.4970   -3.2000 hc        1 MOL      0.074804
     60 H24        -3.1790   -2.7450   -4.0810 hn        1 MOL      0.302752
     61 H25        -2.0710   -2.3940   -2.7860 hn        1 MOL      0.302752
     62 N7         -5.9600   -2.7560    0.4950 n         1 MOL     -0.236179
     63 C20        -5.8550   -3.7050    1.6110 c3        1 MOL     -0.230257
     64 C21        -4.5270   -4.4660    1.7570 c         1 MOL      0.505604
     65 O12        -4.3010   -5.2000    2.6780 o         1 MOL     -0.597574
     66 H26        -5.5650   -1.8240    0.5540 hn        1 MOL      0.258063
     67 H27        -6.6440   -4.4630    1.5590 h1        1 MOL      0.115955
     68 H28        -6.0370   -3.2510    2.5810 h1        1 MOL      0.115955
     69 N8         -3.5560   -4.2060    0.9370 n         1 MOL     -0.093484
     70 C22        -2.1710   -4.6840    1.1550 c3        1 MOL     -0.180933
     71 C23        -1.2930   -3.4490    1.3320 c         1 MOL      0.750370
     72 O13        -1.5040   -2.3720    0.7520 o         1 MOL     -0.712293
     73 C24        -1.6790   -5.5430   -0.0010 c3        1 MOL      0.519852
     74 C25        -2.4110   -6.8130    0.0830 c3        1 MOL     -0.334186
     75 O14        -1.7330   -5.0630   -1.3250 oh        1 MOL     -0.664469
     76 H29        -3.7010   -3.5290    0.2030 hn        1 MOL      0.088929
     77 H30        -2.0620   -5.2290    2.0840 h1        1 MOL      0.089946
     78 H31        -0.6440   -5.8440    0.1980 h1        1 MOL     -0.000515
     79 H32        -2.5910   -5.2800   -1.6950 ho        1 MOL      0.401643
     80 H33        -1.9450   -7.4710   -0.6420 hc        1 MOL      0.063730
     81 H34        -2.2420   -7.2800    1.0610 hc        1 MOL      0.063730
     82 H35        -3.4450   -6.6440   -0.2070 hc        1 MOL      0.063730
     83 N9         -0.2800   -3.5700    2.1690 n         1 MOL     -0.592832
     84 C26         0.9070   -2.6990    2.1240 c3        1 MOL     -0.101293
     85 C27         1.7220   -3.1160    0.8960 c         1 MOL      0.594913
     86 O15         2.3630   -4.1710    0.8610 o         1 MOL     -0.576614
     87 C28         1.7570   -2.8390    3.4320 c3        1 MOL      0.270820
     88 C29         0.8900   -2.5450    4.7040 c3        1 MOL      0.122675
     89 C30         2.9720   -1.8950    3.4190 c3        1 MOL     -0.251846
     90 C31         1.6680   -2.4670    6.0110 c3        1 MOL     -0.356646
     91 H36        -0.0790   -4.4900    2.5390 hn        1 MOL      0.287420
     92 H37         0.5880   -1.6650    2.0380 h1        1 MOL      0.084424
     93 H38         2.0070   -3.9020    3.4590 hc        1 MOL     -0.041062
     94 H39        -0.0090   -3.1590    4.7910 hc        1 MOL     -0.019898
     95 H40         0.4870   -1.5470    4.5350 hc        1 MOL     -0.019898
     96 H41         3.6580   -2.1330    4.2320 hc        1 MOL      0.045647
     97 H42         3.6150   -2.0810    2.5550 hc        1 MOL      0.045647
     98 H43         2.7120   -0.8400    3.4370 hc        1 MOL      0.045647
     99 H44         2.4040   -1.6720    6.0830 hc        1 MOL      0.079972
    100 H45         0.9660   -2.0880    6.7550 hc        1 MOL      0.079972
    101 H46         2.0610   -3.4560    6.2430 hc        1 MOL      0.079972
    102 N10         1.6380   -2.1210   -0.0670 n         1 MOL     -0.350745
    103 C32         2.5390   -2.0230   -1.2520 c3        1 MOL     -0.004198
    104 C33         3.9570   -1.6100   -0.8480 c         1 MOL      0.474705
    105 O16         4.1010   -0.8510    0.1150 o         1 MOL     -0.370975
    106 C34         1.9480   -1.2200   -2.4470 c3        1 MOL     -0.326848
    107 C35         0.4360   -1.5900   -2.7380 c         1 MOL      0.739050
    108 O17         0.2120   -2.2140   -3.8030 o         1 MOL     -0.671380
    109 O18        -0.4030   -0.9820   -2.0570 o         1 MOL     -0.671380
    110 H47         1.0300   -1.3350    0.0800 hn        1 MOL      0.252506
    111 H48         2.6670   -3.0340   -1.6370 h1        1 MOL      0.053367
    112 H49         2.5670   -1.3010   -3.3430 hc        1 MOL      0.113026
    113 H50         1.7780   -0.2100   -2.0980 hc        1 MOL      0.113026
    114 N11         4.9750   -2.0780   -1.5560 n         1 MOL     -0.587096
    115 C36         6.3630   -1.7150   -1.2150 c3        1 MOL      0.264425
    116 C37         6.5910   -0.1370   -1.1510 c         1 MOL      0.376692
    117 O19         7.1950    0.2420   -0.1220 o         1 MOL     -0.464878
    118 C38         7.3600   -2.2740   -2.1940 c3        1 MOL     -0.187287
    119 C39         8.8260   -1.8370   -1.9210 ca        1 MOL      0.108160
    120 C40         9.4850   -0.9330   -2.7720 ca        1 MOL     -0.216373
    121 C41         9.3600   -2.1330   -0.6690 ca        1 MOL     -0.216373
    122 C42        10.7060   -0.4250   -2.4620 ca        1 MOL     -0.024743
    123 C43        10.5880   -1.5470   -0.3040 ca        1 MOL     -0.024743
    124 C44        11.3260   -0.7720   -1.2080 ca        1 MOL     -0.220937
    125 H51         4.8670   -2.8490   -2.2130 hn        1 MOL      0.324322
    126 H52         6.5200   -2.0880   -0.2000 h1        1 MOL      0.075278
    127 H53         7.0370   -2.0280   -3.2070 hc        1 MOL      0.057657
    128 H54         7.4450   -3.3590   -2.1250 hc        1 MOL      0.057657
    129 H55         9.0670   -0.6280   -3.7230 ha        1 MOL      0.126629
    130 H56         8.8370   -2.7700    0.0210 ha        1 MOL      0.126629
    131 H57        11.2140    0.2910   -3.0960 ha        1 MOL      0.092378
    132 H58        10.9800   -1.8380    0.6580 ha        1 MOL      0.092378
    133 H59        12.2240   -0.3120   -0.8290 ha        1 MOL      0.130733
    134 N12         5.9360    0.7450   -1.9750 n         1 MOL     -0.095647
    135 C45         6.1440    2.1690   -1.8630 c3        1 MOL      0.022030
    136 C46         5.6620    2.7320   -0.4790 c         1 MOL      0.169734
    137 O20         5.9740    3.8220   -0.0610 o         1 MOL     -0.489703
    138 C47         5.3680    2.7620   -2.9840 c3        1 MOL      0.058228
    139 C48         5.3990    1.6970   -4.0730 c3        1 MOL     -0.202218
    140 C49         5.2160    0.4130   -3.1900 c3        1 MOL     -0.105215
    141 H60         7.1830    2.4820   -1.9510 h1        1 MOL      0.078863
    142 H61         4.3170    2.9060   -2.7660 hc        1 MOL      0.031672
    143 H62         5.8130    3.6910   -3.3230 hc        1 MOL      0.031672
    144 H63         4.5240    1.8700   -4.7080 hc        1 MOL      0.072683
    145 H64         6.3570    1.8110   -4.5780 hc        1 MOL      0.072683
    146 H65         4.1570    0.4420   -2.9330 h1        1 MOL      0.084499
    147 H66         5.5190   -0.5210   -3.6760 h1        1 MOL      0.084499
    148 N13         4.6760    2.0990    0.1790 n         1 MOL      0.016469
    149 C50         4.0410    2.4310    1.5320 c3        1 MOL     -0.074209
    150 C51         4.8120    1.7620    2.6420 c         1 MOL      0.506324
    151 O21         4.9190    2.3030    3.6810 o         1 MOL     -0.591905
    152 C52         2.5850    1.8730    1.4820 c3        1 MOL     -0.015636
    153 C53         1.7210    2.3530    0.2680 c3        1 MOL     -0.195613
    154 C54         0.4160    1.5270    0.0820 c         1 MOL      0.605073
    155 O22        -0.5400    2.0300   -0.5600 o         1 MOL     -0.672869
    156 O23         0.2390    0.3930    0.5920 o         1 MOL     -0.672869
    157 H67         4.3410    1.2050   -0.1420 hn        1 MOL      0.116205
    158 H68         4.0360    3.4840    1.7730 h1        1 MOL      0.103384
    159 H69         2.0750    2.0720    2.4210 hc        1 MOL      0.031882
    160 H70         2.6630    0.7860    1.4720 hc        1 MOL      0.031882
    161 H71         2.3400    2.1320   -0.6080 hc        1 MOL      0.073898
    162 H72         1.5210    3.4290    0.2450 hc        1 MOL      0.073898
    163 N14         5.5310    0.7200    2.3670 n         1 MOL      0.034291
    164 C55         6.5980    0.2400    3.1890 c3        1 MOL     -0.209132
    165 H73         7.5510    0.5610    2.7690 h1        1 MOL      0.068043
    166 H74         6.4910    0.6430    4.1960 h1        1 MOL      0.068043
    167 H75         6.5660   -0.8490    3.2270 h1        1 MOL      0.068043
    168 H76         5.4440    0.2530    1.4730 hn        1 MOL      0.015073
    169 Ca1        -2.1440   -0.1400   -0.3730 Ca        1 MOL      1.722178
    170 O24        -4.4340   -0.7150    1.3800 oh        1 MOL     -0.750045
    171 H77        -4.8270    0.1430    1.5470 ho        1 MOL      0.377407
    172 H78        -3.7170   -0.7770    2.0120 ho        1 MOL      0.377407
    173 O25        -1.9420    0.0780    2.5150 oh        1 MOL     -0.750045
    174 H79        -1.0100    0.3050    2.5290 ho        1 MOL      0.377407
    175 H80        -2.2190    0.1400    3.4340 ho        1 MOL      0.377407
@<TRIPOS>BOND
     1    1    2 1   
     2    1    4 1   
     3    1    5 1   
     4    1    6 1   
     5    2    3 2   
     6    2    7 1   
     7    7    8 1   
     8    7   15 1   
     9    8    9 1   
    10    8   11 1   
    11    8   16 1   
    12    9   10 2   
    13    9   19 1   
    14   11   12 1   
    15   11   17 1   
    16   11   18 1   
    17   12   13 1   
    18   12   14 1   
    19   19   20 1   
    20   19   24 1   
    21   20   21 1   
    22   20   23 1   
    23   20   25 1   
    24   21   22 2   
    25   21   29 1   
    26   23   26 1   
    27   23   27 1   
    28   23   28 1   
    29   29   30 1   
    30   29   37 1   
    31   30   31 1   
    32   30   33 1   
    33   30   38 1   
    34   31   32 2   
    35   31   41 1   
    36   33   34 1   
    37   33   39 1   
    38   33   40 1   
    39   34   35 1   
    40   34   36 1   
    41   41   42 1   
    42   41   45 1   
    43   42   43 1   
    44   42   46 1   
    45   42   47 1   
    46   43   44 2   
    47   43   48 1   
    48   48   49 1   
    49   48   56 1   
    50   49   50 1   
    51   49   52 1   
    52   49   57 1   
    53   50   51 2   
    54   50   62 1   
    55   52   53 1   
    56   52   58 1   
    57   52   59 1   
    58   53   54 1   
    59   53   55 2   
    60   54   60 1   
    61   54   61 1   
    62   62   63 1   
    63   62   66 1   
    64   63   64 1   
    65   63   67 1   
    66   63   68 1   
    67   64   65 2   
    68   64   69 1   
    69   69   70 1   
    70   69   76 1   
    71   70   71 1   
    72   70   73 1   
    73   70   77 1   
    74   71   72 2   
    75   71   83 1   
    76   73   74 1   
    77   73   75 1   
    78   73   78 1   
    79   74   80 1   
    80   74   81 1   
    81   74   82 1   
    82   75   79 1   
    83   83   84 1   
    84   83   91 1   
    85   84   85 1   
    86   84   87 1   
    87   84   92 1   
    88   85   86 2   
    89   85  102 1   
    90   87   88 1   
    91   87   89 1   
    92   87   93 1   
    93   88   90 1   
    94   88   94 1   
    95   88   95 1   
    96   89   96 1   
    97   89   97 1   
    98   89   98 1   
    99   90   99 1   
   100   90  100 1   
   101   90  101 1   
   102  102  103 1   
   103  102  110 1   
   104  103  104 1   
   105  103  106 1   
   106  103  111 1   
   107  104  105 2   
   108  104  114 1   
   109  106  107 1   
   110  106  112 1   
   111  106  113 1   
   112  107  108 1   
   113  107  109 1   
   114  114  115 1   
   115  114  125 1   
   116  115  116 1   
   117  115  118 1   
   118  115  126 1   
   119  116  117 2   
   120  116  134 1   
   121  118  119 1   
   122  118  127 1   
   123  118  128 1   
   124  119  120 ar  
   125  119  121 ar  
   126  120  122 ar  
   127  120  129 1   
   128  121  123 ar  
   129  121  130 1   
   130  122  124 ar  
   131  122  131 1   
   132  123  124 ar  
   133  123  132 1   
   134  124  133 1   
   135  134  135 1   
   136  134  140 1   
   137  135  136 1   
   138  135  138 1   
   139  135  141 1   
   140  136  137 2   
   141  136  148 1   
   142  138  139 1   
   143  138  142 1   
   144  138  143 1   
   145  139  140 1   
   146  139  144 1   
   147  139  145 1   
   148  140  146 1   
   149  140  147 1   
   150  148  149 1   
   151  148  157 1   
   152  149  150 1   
   153  149  152 1   
   154  149  158 1   
   155  150  151 2   
   156  150  163 1   
   157  152  153 1   
   158  152  159 1   
   159  152  160 1   
   160  153  154 1   
   161  153  161 1   
   162  153  162 1   
   163  154  155 1   
   164  154  156 1   
   165  163  164 1   
   166  163  168 1   
   167  164  165 1   
   168  164  166 1   
   169  164  167 1   
   170  170  171 1   
   171  170  172 1   
   172  173  174 1   
   173  173  175 1   
@<TRIPOS>SUBSTRUCTURE
     1 MOL         1 TEMP              0 ****  ****    0 ROOT
