@<TRIPOS>MOLECULE
MOL
  186   183     1     0     0
SMALL
resp


@<TRIPOS>ATOM
      1 C1          0.2880   -2.3140    6.1200 c3        1 MOL     -0.396367
      2 C2          0.8650   -2.4080    4.7080 c         1 MOL      0.669961
      3 O1          0.2140   -2.8600    3.7930 o         1 MOL     -0.567439
      4 H1         -0.2950   -1.3980    6.2140 hc        1 MOL      0.098557
      5 H2         -0.3540   -3.1740    6.3100 hc        1 MOL      0.098557
      6 H3          1.1020   -2.3010    6.8450 hc        1 MOL      0.098557
      7 N1          2.0740   -1.9470    4.4210 n         1 MOL     -0.594365
      8 C3          2.5730   -1.8080    3.0410 c3        1 MOL      0.324673
      9 C4          2.8280   -3.2130    2.4520 c         1 MOL      0.474855
     10 O2          3.7840   -3.8590    2.9060 o         1 MOL     -0.592109
     11 C5          3.7070   -0.7820    3.1170 c3        1 MOL     -0.271114
     12 C6          4.3570   -0.4140    1.7360 c         1 MOL      0.906508
     13 O3          5.3070    0.4290    1.7960 o         1 MOL     -0.741043
     14 O4          3.8790   -0.8530    0.6480 o         1 MOL     -0.741043
     15 H4          2.5670   -1.6750    5.2610 hn        1 MOL      0.304593
     16 H5          1.7940   -1.3570    2.4230 h1        1 MOL     -0.008106
     17 H6          4.4300   -1.0790    3.8730 hc        1 MOL      0.038664
     18 H7          3.2250    0.1260    3.4640 hc        1 MOL      0.038664
     19 N2          2.0670   -3.6470    1.4470 n         1 MOL     -0.107361
     20 C7          2.1810   -5.0600    1.0050 c3        1 MOL     -0.019901
     21 C8          3.2600   -5.1050   -0.0450 c         1 MOL      0.564695
     22 O5          4.1490   -5.9560    0.1220 o         1 MOL     -0.605898
     23 C9          0.7820   -5.5700    0.4430 c3        1 MOL      0.088330
     24 C10        -0.3140   -5.5880    1.5420 c3        1 MOL      0.207657
     25 C11         1.0040   -6.9910   -0.0310 c3        1 MOL     -0.392584
     26 C12        -0.1350   -6.5520    2.6950 c3        1 MOL     -0.309936
     27 H8          1.4220   -3.0270    0.9930 hn        1 MOL      0.007588
     28 H9          2.5880   -5.6550    1.8250 h1        1 MOL      0.063375
     29 H10         0.5260   -4.9350   -0.4050 hc        1 MOL      0.027078
     30 H11        -1.2660   -5.7780    1.0530 hc        1 MOL     -0.021233
     31 H12        -0.5410   -4.6130    1.9890 hc        1 MOL     -0.021233
     32 H13         1.6270   -6.8260   -0.9140 hc        1 MOL      0.084694
     33 H14         1.5920   -7.6420    0.6030 hc        1 MOL      0.084694
     34 H15         0.0790   -7.4900   -0.3190 hc        1 MOL      0.084694
     35 H16        -0.9660   -6.4520    3.3850 hc        1 MOL      0.062409
     36 H17        -0.0420   -7.6030    2.4200 hc        1 MOL      0.062409
     37 H18         0.7680   -6.2830    3.2520 hc        1 MOL      0.062409
     38 N3          3.1950   -4.3400   -1.1250 n         1 MOL     -0.281088
     39 C13         4.1340   -4.3230   -2.2730 c3        1 MOL     -0.101895
     40 C14         5.4370   -3.5520   -1.9940 c         1 MOL      0.341123
     41 O6          6.4090   -3.7200   -2.7720 o         1 MOL     -0.536317
     42 C15         3.4250   -4.0700   -3.5640 c3        1 MOL     -0.114801
     43 C16         2.7970   -2.6960   -3.6490 c         1 MOL      0.722993
     44 O7          2.1590   -2.3410   -4.6610 o         1 MOL     -0.680139
     45 O8          2.9290   -1.8860   -2.6550 o         1 MOL     -0.680139
     46 H19         2.3710   -3.7770   -1.3110 hn        1 MOL      0.244236
     47 H20         4.5100   -5.3350   -2.3440 h1        1 MOL      0.105078
     48 H21         2.7200   -4.8780   -3.7350 hc        1 MOL      0.042638
     49 H22         4.0210   -4.1760   -4.4730 hc        1 MOL      0.042638
     50 N4          5.5820   -2.7540   -0.9530 n         1 MOL      0.151447
     51 C17         6.7970   -2.2340   -0.3090 c3        1 MOL     -0.169268
     52 C18         7.4350   -1.1320   -1.1500 c         1 MOL      0.465785
     53 O9          8.4020   -1.3030   -1.9150 o         1 MOL     -0.566812
     54 H23         4.7340   -2.6370   -0.4100 hn        1 MOL     -0.001452
     55 H24         7.4530   -3.1100   -0.2860 h1        1 MOL      0.075380
     56 H25         6.7290   -1.8850    0.7150 h1        1 MOL      0.075380
     57 N5          6.8320    0.0040   -1.0710 n         1 MOL     -0.109580
     58 C19         7.1610    1.2940   -1.8120 c3        1 MOL      0.032221
     59 C20         7.2720    2.4550   -0.8150 c         1 MOL      0.454188
     60 O10         7.4760    3.6460   -1.0850 o         1 MOL     -0.536900
     61 C21         6.2480    1.5960   -2.9660 c3        1 MOL     -0.069231
     62 C22         4.7790    1.7170   -2.5180 c         1 MOL      0.680218
     63 O11         3.9260    2.1840   -3.3130 o         1 MOL     -0.697757
     64 O12         4.3730    1.3810   -1.3640 o         1 MOL     -0.697757
     65 H26         6.0360    0.1740   -0.4590 hn        1 MOL     -0.181672
     66 H27         8.1650    1.1000   -2.2000 h1        1 MOL      0.049658
     67 H28         6.2900    0.7970   -3.7100 hc        1 MOL      0.044469
     68 H29         6.4980    2.5100   -3.5060 hc        1 MOL      0.044469
     69 N6          7.0170    2.1850    0.5000 n         1 MOL     -0.400651
     70 C23         7.0700    3.1230    1.5790 c3        1 MOL     -0.052759
     71 C24         5.7640    3.9370    1.8600 c         1 MOL      0.519296
     72 O13         5.7780    4.9430    2.5870 o         1 MOL     -0.600978
     73 H30         6.7590    1.2470    0.7620 hn        1 MOL      0.343308
     74 H31         7.8880    3.8390    1.5540 h1        1 MOL      0.064930
     75 H32         7.1590    2.5500    2.5040 h1        1 MOL      0.064930
     76 N7          4.6580    3.4610    1.2660 n         1 MOL     -0.373283
     77 C25         3.3090    4.0450    1.3570 c3        1 MOL      0.004362
     78 C26         2.1970    2.9450    1.4110 c         1 MOL      0.340140
     79 O14         2.2490    1.8510    0.9030 o         1 MOL     -0.509461
     80 C27         3.0080    4.9770    0.1520 c3        1 MOL     -0.123382
     81 C28         3.8770    6.2460    0.4250 c3        1 MOL     -0.058373
     82 C29         3.6200    7.4710   -0.3890 c         1 MOL      0.549593
     83 N8          4.3010    7.8640   -1.3760 n         1 MOL     -0.682825
     84 O15         2.6780    8.1360   -0.0410 o         1 MOL     -0.593053
     85 H33         4.7420    2.5540    0.8280 hn        1 MOL      0.431891
     86 H34         3.2670    4.5990    2.2980 h1        1 MOL      0.085011
     87 H35         1.9680    5.2930    0.1780 hc        1 MOL      0.091355
     88 H36         3.3150    4.5100   -0.7810 hc        1 MOL      0.091355
     89 H37         4.9390    5.9950    0.3370 hc        1 MOL      0.038511
     90 H38         3.7340    6.4570    1.4830 hc        1 MOL      0.038511
     91 H39         5.1100    7.3090   -1.5940 hn        1 MOL      0.332126
     92 H40         4.1710    8.8540   -1.5130 hn        1 MOL      0.332126
     93 N9          1.0960    3.3470    2.0640 n         1 MOL     -0.286613
     94 C30        -0.2200    2.6230    2.1840 c3        1 MOL      0.059726
     95 C31        -1.3090    3.1920    1.2800 c         1 MOL      0.331037
     96 O16        -1.7000    4.3420    1.3850 o         1 MOL     -0.522392
     97 C32        -0.7400    2.4570    3.6800 c3        1 MOL      0.290883
     98 C33        -1.6020    1.1780    3.8610 c3        1 MOL     -0.321930
     99 C34         0.3340    2.3960    4.7870 c3        1 MOL     -0.321930
    100 H41         1.0020    4.2390    2.5250 hn        1 MOL      0.240047
    101 H42        -0.0460    1.5930    1.8510 h1        1 MOL      0.086720
    102 H43        -1.3210    3.3430    3.9330 hc        1 MOL     -0.046921
    103 H44        -1.0750    0.2810    3.5400 hc        1 MOL      0.065036
    104 H45        -1.9150    1.1350    4.8990 hc        1 MOL      0.065036
    105 H46        -2.5170    1.1770    3.2680 hc        1 MOL      0.065036
    106 H47        -0.0910    2.4290    5.7860 hc        1 MOL      0.065036
    107 H48         0.9600    1.5190    4.6980 hc        1 MOL      0.065036
    108 H49         0.8830    3.3380    4.7380 hc        1 MOL      0.065036
    109 N10        -1.6390    2.3580    0.2170 n         1 MOL     -0.086666
    110 C35        -2.7370    2.5620   -0.7120 c3        1 MOL     -0.058996
    111 C36        -4.0890    2.2250   -0.1020 c         1 MOL      0.473689
    112 O17        -4.1030    1.5860    0.9010 o         1 MOL     -0.412166
    113 C37        -2.4030    1.7210   -2.0130 c3        1 MOL     -0.323718
    114 C38        -3.2520    2.1360   -3.1800 c         1 MOL      0.618473
    115 N11        -2.7700    2.9270   -4.1090 n         1 MOL     -0.693743
    116 O18        -4.4140    1.7600   -3.2940 o         1 MOL     -0.534170
    117 H50        -1.1890    1.4590    0.1290 hn        1 MOL      0.125888
    118 H51        -2.7860    3.6380   -0.9230 h1        1 MOL      0.056925
    119 H52        -2.6270    0.6500   -1.9300 hc        1 MOL      0.136706
    120 H53        -1.3450    1.7120   -2.2850 hc        1 MOL      0.136706
    121 H54        -1.8770    3.3830   -4.0130 hn        1 MOL      0.335151
    122 H55        -3.3940    3.1400   -4.8800 hn        1 MOL      0.335151
    123 N12        -5.2300    2.5120   -0.6890 n         1 MOL     -0.403255
    124 C39        -6.5130    2.1970   -0.1870 c3        1 MOL      0.085328
    125 C40        -6.7850    0.6540   -0.0600 c         1 MOL      0.675382
    126 O19        -7.3370    0.0670    0.8900 o         1 MOL     -0.543312
    127 C41        -7.6170    2.8300   -0.9740 c3        1 MOL     -0.082153
    128 C42        -8.9470    2.2750   -0.6980 ca        1 MOL      0.033369
    129 C43        -9.5860    2.5060    0.5070 ca        1 MOL     -0.175200
    130 C44        -9.6860    1.5750   -1.7180 ca        1 MOL     -0.175200
    131 C45       -10.8220    1.9550    0.7490 ca        1 MOL     -0.280685
    132 C46       -10.9060    0.9190   -1.4320 ca        1 MOL     -0.280685
    133 C47       -11.4500    1.0860   -0.1530 ca        1 MOL      0.426068
    134 O20       -12.7060    0.5790    0.0760 oh        1 MOL     -0.574289
    135 H56        -5.1690    2.9690   -1.5930 hn        1 MOL      0.230787
    136 H57        -6.5980    2.6360    0.8130 h1        1 MOL      0.040057
    137 H58        -7.4170    2.7670   -2.0540 hc        1 MOL      0.041529
    138 H59        -7.6500    3.8990   -0.7810 hc        1 MOL      0.041529
    139 H60        -9.1640    3.1920    1.2320 ha        1 MOL      0.141378
    140 H61        -9.2060    1.4030   -2.6670 ha        1 MOL      0.141378
    141 H62       -11.3010    2.1460    1.7040 ha        1 MOL      0.145320
    142 H63       -11.3680    0.3190   -2.2050 ha        1 MOL      0.145320
    143 H64       -13.0040   -0.0350   -0.5870 ho        1 MOL      0.388629
    144 N13        -6.2850   -0.0720   -1.1130 n         1 MOL     -0.569360
    145 C48        -6.4560   -1.5010   -1.1780 c3        1 MOL      0.108501
    146 C49        -5.6250   -2.0910   -0.0490 c         1 MOL      0.396007
    147 O21        -6.0110   -3.2340    0.3580 o         1 MOL     -0.566451
    148 C50        -6.0730   -2.0290   -2.5900 c3        1 MOL     -0.055514
    149 C51        -4.6280   -1.9340   -2.9900 c3        1 MOL     -0.051287
    150 C52        -4.3380   -2.3780   -4.4710 c         1 MOL      0.660389
    151 O22        -4.8000   -3.5090   -4.8040 o         1 MOL     -0.718357
    152 O23        -3.7740   -1.6400   -5.2830 o         1 MOL     -0.718357
    153 H65        -5.8000    0.3690   -1.8750 hn        1 MOL      0.301154
    154 H66        -7.4830   -1.7530   -0.9000 h1        1 MOL      0.047308
    155 H67        -6.6060   -1.4520   -3.3520 hc        1 MOL      0.013749
    156 H68        -6.4320   -3.0540   -2.6230 hc        1 MOL      0.013749
    157 H69        -4.0760   -2.6070   -2.3440 hc        1 MOL     -0.014909
    158 H70        -4.1860   -0.9480   -2.8130 hc        1 MOL     -0.014909
    159 N14        -4.5840   -1.4960    0.4940 n         1 MOL     -0.113291
    160 C53        -3.7190   -2.0460    1.5360 c3        1 MOL     -0.286430
    161 C54        -4.2490   -1.6650    2.9470 c         1 MOL      0.503355
    162 O24        -3.9670   -2.3150    3.8930 o         1 MOL     -0.539777
    163 C55        -2.2810   -1.4760    1.3030 c3        1 MOL      0.000923
    164 C56        -1.6970   -1.8440   -0.1300 c3        1 MOL      0.072762
    165 C57        -0.3000   -1.1970   -0.2070 c         1 MOL      0.662740
    166 O25         0.6910   -1.8760   -0.5490 o         1 MOL     -0.727217
    167 O26        -0.1900    0.0400   -0.0170 o         1 MOL     -0.727217
    168 H71        -4.3200   -0.6270    0.0500 hn        1 MOL      0.302184
    169 H72        -3.7060   -3.1320    1.4630 h1        1 MOL      0.148002
    170 H73        -1.6230   -1.8950    2.0690 hc        1 MOL      0.083978
    171 H74        -2.3480   -0.3880    1.3800 hc        1 MOL      0.083978
    172 H75        -2.3540   -1.4990   -0.9290 hc        1 MOL     -0.020195
    173 H76        -1.6690   -2.9260   -0.2210 hc        1 MOL     -0.020195
    174 N15        -5.1580   -0.6600    3.0380 n         1 MOL     -0.025965
    175 C58        -5.9620   -0.3920    4.2540 c3        1 MOL     -0.306046
    176 H77        -6.4080    0.6000    4.1820 h1        1 MOL      0.103872
    177 H78        -6.7500   -1.1390    4.3410 h1        1 MOL      0.103872
    178 H79        -5.3180   -0.4380    5.1330 h1        1 MOL      0.103872
    179 H80        -5.2290   -0.0640    2.2250 hn        1 MOL     -0.012331
    180 Ca1         2.2580   -0.0270   -1.0600 Ca        1 MOL      1.774801
    181 O27         1.6490    2.4190   -2.4000 oh        1 MOL     -0.911707
    182 H81         2.5140    2.3900   -2.8010 ho        1 MOL      0.413244
    183 H82         1.1160    2.9270   -3.0090 ho        1 MOL      0.413244
    184 O28         0.6430   -0.6510   -3.3720 oh        1 MOL     -0.911707
    185 H83         0.8720   -1.4550   -3.8410 ho        1 MOL      0.413244
    186 H84         0.0030   -0.2110   -3.9340 ho        1 MOL      0.413244
@<TRIPOS>BOND
     1    1    2 1   
     2    1    4 1   
     3    1    5 1   
     4    1    6 1   
     5    2    3 2   
     6    2    7 1   
     7    7    8 1   
     8    7   15 1   
     9    8    9 1   
    10    8   11 1   
    11    8   16 1   
    12    9   10 2   
    13    9   19 1   
    14   11   12 1   
    15   11   17 1   
    16   11   18 1   
    17   12   13 1   
    18   12   14 1   
    19   19   20 1   
    20   19   27 1   
    21   20   21 1   
    22   20   23 1   
    23   20   28 1   
    24   21   22 2   
    25   21   38 1   
    26   23   24 1   
    27   23   25 1   
    28   23   29 1   
    29   24   26 1   
    30   24   30 1   
    31   24   31 1   
    32   25   32 1   
    33   25   33 1   
    34   25   34 1   
    35   26   35 1   
    36   26   36 1   
    37   26   37 1   
    38   38   39 1   
    39   38   46 1   
    40   39   40 1   
    41   39   42 1   
    42   39   47 1   
    43   40   41 2   
    44   40   50 1   
    45   42   43 1   
    46   42   48 1   
    47   42   49 1   
    48   43   44 1   
    49   43   45 1   
    50   50   51 1   
    51   50   54 1   
    52   51   52 1   
    53   51   55 1   
    54   51   56 1   
    55   52   53 2   
    56   52   57 1   
    57   57   58 1   
    58   57   65 1   
    59   58   59 1   
    60   58   61 1   
    61   58   66 1   
    62   59   60 2   
    63   59   69 1   
    64   61   62 1   
    65   61   67 1   
    66   61   68 1   
    67   62   63 1   
    68   62   64 1   
    69   69   70 1   
    70   69   73 1   
    71   70   71 1   
    72   70   74 1   
    73   70   75 1   
    74   71   72 2   
    75   71   76 1   
    76   76   77 1   
    77   76   85 1   
    78   77   78 1   
    79   77   80 1   
    80   77   86 1   
    81   78   79 2   
    82   78   93 1   
    83   80   81 1   
    84   80   87 1   
    85   80   88 1   
    86   81   82 1   
    87   81   89 1   
    88   81   90 1   
    89   82   83 1   
    90   82   84 2   
    91   83   91 1   
    92   83   92 1   
    93   93   94 1   
    94   93  100 1   
    95   94   95 1   
    96   94   97 1   
    97   94  101 1   
    98   95   96 2   
    99   95  109 1   
   100   97   98 1   
   101   97   99 1   
   102   97  102 1   
   103   98  103 1   
   104   98  104 1   
   105   98  105 1   
   106   99  106 1   
   107   99  107 1   
   108   99  108 1   
   109  109  110 1   
   110  109  117 1   
   111  110  111 1   
   112  110  113 1   
   113  110  118 1   
   114  111  112 2   
   115  111  123 1   
   116  113  114 1   
   117  113  119 1   
   118  113  120 1   
   119  114  115 1   
   120  114  116 2   
   121  115  121 1   
   122  115  122 1   
   123  123  124 1   
   124  123  135 1   
   125  124  125 1   
   126  124  127 1   
   127  124  136 1   
   128  125  126 2   
   129  125  144 1   
   130  127  128 1   
   131  127  137 1   
   132  127  138 1   
   133  128  129 ar  
   134  128  130 ar  
   135  129  131 ar  
   136  129  139 1   
   137  130  132 ar  
   138  130  140 1   
   139  131  133 ar  
   140  131  141 1   
   141  132  133 ar  
   142  132  142 1   
   143  133  134 1   
   144  134  143 1   
   145  144  145 1   
   146  144  153 1   
   147  145  146 1   
   148  145  148 1   
   149  145  154 1   
   150  146  147 2   
   151  146  159 1   
   152  148  149 1   
   153  148  155 1   
   154  148  156 1   
   155  149  150 1   
   156  149  157 1   
   157  149  158 1   
   158  150  151 1   
   159  150  152 1   
   160  159  160 1   
   161  159  168 1   
   162  160  161 1   
   163  160  163 1   
   164  160  169 1   
   165  161  162 2   
   166  161  174 1   
   167  163  164 1   
   168  163  170 1   
   169  163  171 1   
   170  164  165 1   
   171  164  172 1   
   172  164  173 1   
   173  165  166 1   
   174  165  167 1   
   175  174  175 1   
   176  174  179 1   
   177  175  176 1   
   178  175  177 1   
   179  175  178 1   
   180  181  182 1   
   181  181  183 1   
   182  184  185 1   
   183  184  186 1   
@<TRIPOS>SUBSTRUCTURE
     1 MOL         1 TEMP              0 ****  ****    0 ROOT
