@<TRIPOS>MOLECULE
MOL
  179   176     1     0     0
SMALL
resp


@<TRIPOS>ATOM
      1 C1          1.8790    3.4100    4.6210 c3        1 MOL     -0.414037
      2 C2          1.2220    3.1470    3.2780 c         1 MOL      0.639168
      3 O1          1.9090    3.1630    2.2220 o         1 MOL     -0.566290
      4 H1          1.5600    4.3830    4.9960 hc        1 MOL      0.108288
      5 H2          1.5850    2.6340    5.3280 hc        1 MOL      0.108288
      6 H3          2.9630    3.4030    4.5030 hc        1 MOL      0.108288
      7 N1         -0.1370    3.0300    3.3660 n         1 MOL     -0.674603
      8 C3         -1.0050    2.9120    2.2190 c3        1 MOL      0.207834
      9 C4         -1.4230    4.2220    1.5460 c         1 MOL      0.552492
     10 O2         -2.5180    4.7090    1.5880 o         1 MOL     -0.461241
     11 C5         -2.2340    2.0730    2.5880 c3        1 MOL     -0.016487
     12 C6         -3.1270    1.6690    1.4150 c         1 MOL      0.696680
     13 O3         -4.3190    1.3450    1.5720 o         1 MOL     -0.664578
     14 O4         -2.5600    1.6020    0.2980 o         1 MOL     -0.664578
     15 H4         -0.6270    3.0510    4.2480 hn        1 MOL      0.368996
     16 H5         -0.5120    2.3510    1.4160 h1        1 MOL     -0.024911
     17 H6         -2.7560    2.6850    3.3320 hc        1 MOL     -0.008570
     18 H7         -1.9370    1.1510    3.0720 hc        1 MOL     -0.008570
     19 N2         -0.3780    4.8170    0.8540 n         1 MOL     -0.555174
     20 C7         -0.6600    6.1000    0.2160 c3        1 MOL     -0.004349
     21 C8         -1.4840    6.0900   -0.9800 c         1 MOL      0.502352
     22 O5         -1.8100    7.1890   -1.4150 o         1 MOL     -0.566313
     23 C9          0.7320    6.7310   -0.0960 c3        1 MOL     -0.339650
     24 C10         1.5620    7.1420    1.1810 c3        1 MOL      0.231917
     25 C11         2.8580    7.8520    0.8160 c3        1 MOL     -0.076089
     26 C12         3.6740    8.1050    2.1340 c3        1 MOL      0.012727
     27 N3          4.6690    7.1180    2.4740 n4        1 MOL     -0.454685
     28 H8          0.5030    4.3190    0.8270 hn        1 MOL      0.375353
     29 H9         -1.2710    6.6840    0.9030 h1        1 MOL      0.109012
     30 H10         0.5880    7.6630   -0.6340 hc        1 MOL      0.117680
     31 H11         1.2680    6.0620   -0.7760 hc        1 MOL      0.117680
     32 H12         1.9130    6.2300    1.6760 hc        1 MOL     -0.015653
     33 H13         1.0420    7.6860    1.9640 hc        1 MOL     -0.015653
     34 H14         2.6650    8.8120    0.3390 hc        1 MOL      0.051503
     35 H15         3.4540    7.1670    0.2130 hc        1 MOL      0.051503
     36 H16         2.9500    8.3240    2.9170 hx        1 MOL      0.075045
     37 H17         4.1590    9.0610    1.9080 hx        1 MOL      0.075045
     38 H18         5.2800    7.1080    1.6700 hn        1 MOL      0.368651
     39 H19         5.1930    7.4110    3.2850 hn        1 MOL      0.368651
     40 H20         4.1900    6.2660    2.7240 hn        1 MOL      0.368651
     41 N4         -1.8300    4.9670   -1.5530 n         1 MOL     -0.190285
     42 C13        -2.8200    4.7780   -2.5720 c3        1 MOL      0.082581
     43 C14        -4.2610    4.5740   -2.0630 c         1 MOL      0.389025
     44 O6         -5.2310    4.7530   -2.8180 o         1 MOL     -0.492829
     45 C15        -2.3010    3.8340   -3.6030 c3        1 MOL     -0.209675
     46 C16        -1.9680    2.4890   -3.0410 c         1 MOL      0.772966
     47 O7         -0.9360    2.2400   -2.4110 o         1 MOL     -0.754176
     48 O8         -2.8080    1.5600   -3.1120 o         1 MOL     -0.754176
     49 H21        -1.4810    4.1060   -1.1490 hn        1 MOL      0.148801
     50 H22        -2.9680    5.7930   -2.9390 h1        1 MOL      0.066989
     51 H23        -1.4060    4.3380   -3.9630 hc        1 MOL      0.054621
     52 H24        -3.0260    3.7420   -4.4190 hc        1 MOL      0.054621
     53 N5         -4.4380    4.1900   -0.7510 n         1 MOL     -0.095622
     54 C17        -5.6710    3.6580   -0.1600 c3        1 MOL     -0.113627
     55 C18        -6.3700    2.4730   -0.8180 c         1 MOL      0.564223
     56 O9         -7.4800    2.6680   -1.2700 o         1 MOL     -0.550534
     57 H25        -3.5800    4.0400   -0.2360 hn        1 MOL      0.017397
     58 H26        -6.3140    4.5440   -0.1330 h1        1 MOL      0.072462
     59 H27        -5.4150    3.4930    0.8880 h1        1 MOL      0.072462
     60 N6         -5.8120    1.2230   -0.7580 n         1 MOL     -0.220692
     61 C19        -6.4880    0.0240   -1.1310 c3        1 MOL      0.150452
     62 C20        -6.8070   -0.9700   -0.0180 c         1 MOL      0.171278
     63 O10        -7.6150   -1.9000   -0.1300 o         1 MOL     -0.438823
     64 C21        -5.9120   -0.5580   -2.3970 c3        1 MOL     -0.118189
     65 C22        -4.8230   -1.5990   -2.2370 c         1 MOL      0.566240
     66 N7         -5.0570   -2.7540   -2.7730 n         1 MOL     -0.602148
     67 O11        -3.7660   -1.4270   -1.5780 o         1 MOL     -0.652383
     68 H28        -4.9340    1.2330   -0.2470 hn        1 MOL      0.036318
     69 H29        -7.4670    0.3700   -1.4540 h1        1 MOL      0.081469
     70 H30        -5.6200    0.1510   -3.1760 hc        1 MOL      0.054729
     71 H31        -6.7720   -1.0870   -2.8050 hc        1 MOL      0.054729
     72 H32        -5.9180   -2.8320   -3.2950 hn        1 MOL      0.328820
     73 H33        -4.3480   -3.4760   -2.7620 hn        1 MOL      0.328820
     74 N8         -6.1520   -0.7410    1.1170 n         1 MOL     -0.021691
     75 C23        -6.1480   -1.6910    2.2810 c3        1 MOL     -0.406600
     76 C24        -4.9170   -2.5580    2.4450 c         1 MOL      0.618493
     77 O12        -4.8960   -3.4790    3.2730 o         1 MOL     -0.583278
     78 H34        -5.7230    0.1560    1.2500 hn        1 MOL      0.198324
     79 H35        -6.9700   -2.3890    2.0980 h1        1 MOL      0.175584
     80 H36        -6.2840   -1.1560    3.2230 h1        1 MOL      0.175584
     81 N9         -3.8820   -2.4610    1.6240 n         1 MOL     -0.466582
     82 C25        -2.7680   -3.3800    1.4640 c3        1 MOL      0.527201
     83 C26        -1.4600   -2.5360    1.3000 c         1 MOL      0.212096
     84 O13        -1.5020   -1.3630    0.9130 o         1 MOL     -0.613824
     85 C27        -3.0220   -4.3170    0.2830 c3        1 MOL     -0.096126
     86 C28        -4.2260   -5.2270    0.4420 ca        1 MOL      0.189648
     87 C29        -5.5240   -4.7910    0.0850 ca        1 MOL     -0.323489
     88 C30        -4.0430   -6.5650    0.8540 ca        1 MOL     -0.323489
     89 C31        -6.6640   -5.6260    0.3020 ca        1 MOL     -0.082806
     90 C32        -5.1630   -7.3910    1.0120 ca        1 MOL     -0.082806
     91 C33        -6.4800   -6.9990    0.7670 ca        1 MOL      0.182624
     92 O14        -7.5380   -7.8130    0.9850 oh        1 MOL     -0.442426
     93 H37        -3.9530   -1.6940    0.9770 hn        1 MOL      0.300314
     94 H38        -2.7400   -3.9170    2.4100 h1        1 MOL     -0.035701
     95 H39        -2.0960   -4.8980    0.2510 hc        1 MOL      0.003303
     96 H40        -2.9680   -3.8230   -0.6830 hc        1 MOL      0.003303
     97 H41        -5.5790   -3.8340   -0.4170 ha        1 MOL      0.139686
     98 H42        -3.0540   -6.9480    1.0550 ha        1 MOL      0.139686
     99 H43        -7.6670   -5.2180    0.2020 ha        1 MOL      0.106152
    100 H44        -4.9550   -8.3890    1.3800 ha        1 MOL      0.106152
    101 H45        -7.3360   -8.6730    1.3650 ho        1 MOL      0.357006
    102 N10        -0.3210   -3.1040    1.5460 n         1 MOL     -0.243034
    103 C34         1.0200   -2.4960    1.1910 c3        1 MOL     -0.209754
    104 C35         1.9440   -3.5480    0.5780 c         1 MOL      0.457836
    105 O15         2.0870   -4.6460    1.1070 o         1 MOL     -0.569884
    106 C36         1.6530   -1.8480    2.4240 c3        1 MOL      0.436286
    107 C37         1.8140   -2.6340    3.6250 c3        1 MOL      0.000578
    108 C38         0.9760   -0.4880    2.8130 c3        1 MOL     -0.755969
    109 C39         2.6410   -2.0770    4.8220 c3        1 MOL     -0.285944
    110 H46        -0.2550   -4.0190    1.9750 hn        1 MOL      0.224302
    111 H47         0.9200   -1.6770    0.4850 h1        1 MOL      0.147911
    112 H48         2.6570   -1.5420    2.0930 hc        1 MOL     -0.075128
    113 H49         2.3690   -3.5490    3.4490 hc        1 MOL      0.026870
    114 H50         0.8320   -2.8830    4.0430 hc        1 MOL      0.026870
    115 H51         1.0890    0.2040    1.9770 hc        1 MOL      0.222698
    116 H52        -0.1030   -0.5830    2.9380 hc        1 MOL      0.222698
    117 H53         1.4180   -0.0310    3.7060 hc        1 MOL      0.222698
    118 H54         3.5590   -1.6320    4.4420 hc        1 MOL      0.067877
    119 H55         2.0330   -1.3460    5.3520 hc        1 MOL      0.067877
    120 H56         3.0710   -2.8440    5.4790 hc        1 MOL      0.067877
    121 N11         2.8340   -3.1320   -0.2720 n         1 MOL     -0.077074
    122 C40         3.9330   -3.9630   -0.7740 c3        1 MOL      0.001274
    123 C41         5.3380   -3.5780   -0.0790 c         1 MOL      0.391027
    124 O16         5.6300   -2.4480    0.4450 o         1 MOL     -0.441964
    125 C42         3.9210   -3.7630   -2.2680 c3        1 MOL     -0.160026
    126 O17         4.4540   -2.4460   -2.5760 oh        1 MOL     -0.423836
    127 H57         2.7540   -2.1810   -0.6150 hn        1 MOL      0.030283
    128 H58         3.6790   -5.0160   -0.6550 h1        1 MOL      0.093934
    129 H59         2.9060   -3.8900   -2.6370 h1        1 MOL      0.112041
    130 H60         4.5930   -4.4970   -2.7010 h1        1 MOL      0.112041
    131 H61         4.0230   -1.9630   -3.2830 ho        1 MOL      0.386735
    132 N12         6.3110   -4.4890   -0.2730 n         1 MOL     -0.328861
    133 C43         7.7400   -4.2440   -0.0980 c3        1 MOL      0.071287
    134 C44         8.3870   -2.9950   -0.7650 c         1 MOL      0.455577
    135 O18         9.4140   -2.4590   -0.3250 o         1 MOL     -0.549632
    136 C45         8.4930   -5.5520   -0.3280 c3        1 MOL     -0.223576
    137 H62         5.9480   -5.4050   -0.5180 hn        1 MOL      0.266604
    138 H63         7.8630   -4.0530    0.9770 h1        1 MOL      0.094944
    139 H64         8.2420   -5.9010   -1.3370 hc        1 MOL      0.072636
    140 H65         9.5760   -5.5330   -0.2190 hc        1 MOL      0.072636
    141 H66         8.0910   -6.3210    0.3340 hc        1 MOL      0.072636
    142 N13         7.7720   -2.4000   -1.7630 n         1 MOL     -0.273015
    143 C46         8.2300   -1.1520   -2.3720 c3        1 MOL      0.168017
    144 C47         7.5370    0.0470   -1.8070 c         1 MOL      0.351132
    145 O19         8.1740    1.0550   -1.5560 o         1 MOL     -0.488631
    146 C48         7.8070   -1.2950   -3.8230 c3        1 MOL     -0.171488
    147 H67         6.9630   -2.9220   -2.0920 hn        1 MOL      0.192424
    148 H68         9.3150   -1.0480   -2.4170 h1        1 MOL      0.088445
    149 H69         8.3740   -2.1600   -4.1620 hc        1 MOL      0.034531
    150 H70         6.7370   -1.4550   -3.8720 hc        1 MOL      0.034531
    151 H71         8.1070   -0.4100   -4.4020 hc        1 MOL      0.034531
    152 N14         6.1820   -0.1310   -1.5230 n         1 MOL     -0.140907
    153 C49         5.5030    0.8760   -0.6260 c3        1 MOL     -0.210468
    154 C50         6.0550    1.1010    0.7990 c         1 MOL      0.488990
    155 O20         6.0730    2.2520    1.2240 o         1 MOL     -0.562958
    156 C51         3.9930    0.6030   -0.5850 c3        1 MOL     -0.041592
    157 C52         3.2010    0.6470   -1.9590 c3        1 MOL     -0.066298
    158 C53         1.7930    0.0870   -1.7710 c         1 MOL      0.754963
    159 O21         1.5080   -0.9550   -2.4130 o         1 MOL     -0.721481
    160 O22         1.0440    0.4720   -0.8560 o         1 MOL     -0.721481
    161 H72         5.6510   -0.9580   -1.7880 hn        1 MOL      0.136415
    162 H73         5.7310    1.8310   -1.1070 h1        1 MOL      0.128259
    163 H74         3.5890    1.3460    0.1060 hc        1 MOL      0.066656
    164 H75         3.6900   -0.3360   -0.1090 hc        1 MOL      0.066656
    165 H76         3.7700    0.2000   -2.7850 hc        1 MOL     -0.005524
    166 H77         3.0230    1.6760   -2.2640 hc        1 MOL     -0.005524
    167 N15         6.6250    0.0290    1.3430 n         1 MOL     -0.089519
    168 C54         7.2880    0.0980    2.6310 c3        1 MOL     -0.298308
    169 H78         6.7750    0.8220    3.2650 h1        1 MOL      0.110976
    170 H79         7.2620   -0.8820    3.1060 h1        1 MOL      0.110976
    171 H80         8.3230    0.4080    2.4910 h1        1 MOL      0.110976
    172 H81         6.5270   -0.8170    0.8010 hn        1 MOL      0.178055
    173 Ca1        -1.4580   -0.0880   -1.4410 Ca        1 MOL      1.775954
    174 O23        -1.1450   -0.8800   -4.1360 oh        1 MOL     -0.803781
    175 H82        -0.4170   -1.0170   -4.7440 ho        1 MOL      0.393590
    176 H83        -1.8670   -1.3650   -4.5120 ho        1 MOL      0.393590
    177 O24        -0.6640   -2.5810   -1.6430 oh        1 MOL     -0.803781
    178 H84         0.1180   -2.5070   -2.1950 ho        1 MOL      0.393590
    179 H85        -0.7090   -3.5030   -1.3990 ho        1 MOL      0.393590
@<TRIPOS>BOND
     1    1    2 1   
     2    1    4 1   
     3    1    5 1   
     4    1    6 1   
     5    2    3 2   
     6    2    7 1   
     7    7    8 1   
     8    7   15 1   
     9    8    9 1   
    10    8   11 1   
    11    8   16 1   
    12    9   10 2   
    13    9   19 1   
    14   11   12 1   
    15   11   17 1   
    16   11   18 1   
    17   12   13 1   
    18   12   14 1   
    19   19   20 1   
    20   19   28 1   
    21   20   21 1   
    22   20   23 1   
    23   20   29 1   
    24   21   22 2   
    25   21   41 1   
    26   23   24 1   
    27   23   30 1   
    28   23   31 1   
    29   24   25 1   
    30   24   32 1   
    31   24   33 1   
    32   25   26 1   
    33   25   34 1   
    34   25   35 1   
    35   26   27 1   
    36   26   36 1   
    37   26   37 1   
    38   27   38 1   
    39   27   39 1   
    40   27   40 1   
    41   41   42 1   
    42   41   49 1   
    43   42   43 1   
    44   42   45 1   
    45   42   50 1   
    46   43   44 2   
    47   43   53 1   
    48   45   46 1   
    49   45   51 1   
    50   45   52 1   
    51   46   47 1   
    52   46   48 1   
    53   53   54 1   
    54   53   57 1   
    55   54   55 1   
    56   54   58 1   
    57   54   59 1   
    58   55   56 2   
    59   55   60 1   
    60   60   61 1   
    61   60   68 1   
    62   61   62 1   
    63   61   64 1   
    64   61   69 1   
    65   62   63 2   
    66   62   74 1   
    67   64   65 1   
    68   64   70 1   
    69   64   71 1   
    70   65   66 1   
    71   65   67 2   
    72   66   72 1   
    73   66   73 1   
    74   74   75 1   
    75   74   78 1   
    76   75   76 1   
    77   75   79 1   
    78   75   80 1   
    79   76   77 2   
    80   76   81 1   
    81   81   82 1   
    82   81   93 1   
    83   82   83 1   
    84   82   85 1   
    85   82   94 1   
    86   83   84 2   
    87   83  102 1   
    88   85   86 1   
    89   85   95 1   
    90   85   96 1   
    91   86   87 ar  
    92   86   88 ar  
    93   87   89 ar  
    94   87   97 1   
    95   88   90 ar  
    96   88   98 1   
    97   89   91 ar  
    98   89   99 1   
    99   90   91 ar  
   100   90  100 1   
   101   91   92 1   
   102   92  101 1   
   103  102  103 1   
   104  102  110 1   
   105  103  104 1   
   106  103  106 1   
   107  103  111 1   
   108  104  105 2   
   109  104  121 1   
   110  106  107 1   
   111  106  108 1   
   112  106  112 1   
   113  107  109 1   
   114  107  113 1   
   115  107  114 1   
   116  108  115 1   
   117  108  116 1   
   118  108  117 1   
   119  109  118 1   
   120  109  119 1   
   121  109  120 1   
   122  121  122 1   
   123  121  127 1   
   124  122  123 1   
   125  122  125 1   
   126  122  128 1   
   127  123  124 2   
   128  123  132 1   
   129  125  126 1   
   130  125  129 1   
   131  125  130 1   
   132  126  131 1   
   133  132  133 1   
   134  132  137 1   
   135  133  134 1   
   136  133  136 1   
   137  133  138 1   
   138  134  135 2   
   139  134  142 1   
   140  136  139 1   
   141  136  140 1   
   142  136  141 1   
   143  142  143 1   
   144  142  147 1   
   145  143  144 1   
   146  143  146 1   
   147  143  148 1   
   148  144  145 2   
   149  144  152 1   
   150  146  149 1   
   151  146  150 1   
   152  146  151 1   
   153  152  153 1   
   154  152  161 1   
   155  153  154 1   
   156  153  156 1   
   157  153  162 1   
   158  154  155 2   
   159  154  167 1   
   160  156  157 1   
   161  156  163 1   
   162  156  164 1   
   163  157  158 1   
   164  157  165 1   
   165  157  166 1   
   166  158  159 1   
   167  158  160 1   
   168  167  168 1   
   169  167  172 1   
   170  168  169 1   
   171  168  170 1   
   172  168  171 1   
   173  174  175 1   
   174  174  176 1   
   175  177  178 1   
   176  177  179 1   
@<TRIPOS>SUBSTRUCTURE
     1 MOL         1 TEMP              0 ****  ****    0 ROOT
