@<TRIPOS>MOLECULE
MOL
  186   183     1     0     0
SMALL
resp


@<TRIPOS>ATOM
      1 C1          0.5680   -2.2130    6.1300 c3        1 MOL     -0.357156
      2 C2          0.9140   -2.2640    4.6270 c         1 MOL      0.839469
      3 O1          0.1440   -2.7750    3.8480 o         1 MOL     -0.638514
      4 H1          1.4350   -2.5230    6.7130 hc        1 MOL      0.078195
      5 H2          0.2910   -1.1950    6.4050 hc        1 MOL      0.078195
      6 H3         -0.2650   -2.8840    6.3340 hc        1 MOL      0.078195
      7 N1          2.1260   -1.8520    4.2270 n         1 MOL     -0.739904
      8 C3          2.6630   -1.8190    2.8960 c3        1 MOL      0.399522
      9 C4          3.0350   -3.1940    2.3820 c         1 MOL      0.458242
     10 O2          4.0180   -3.7600    2.8700 o         1 MOL     -0.594102
     11 C5          3.8650   -0.8490    2.8450 c3        1 MOL     -0.177812
     12 C6          4.4830   -0.5840    1.4770 c         1 MOL      0.758563
     13 O3          3.8280   -0.8740    0.4630 o         1 MOL     -0.684194
     14 O4          5.6020   -0.0750    1.3910 o         1 MOL     -0.684194
     15 H4          2.6050   -1.5150    5.0460 hn        1 MOL      0.298465
     16 H5          1.9720   -1.4050    2.1600 h1        1 MOL     -0.041501
     17 H6          4.6200   -1.2220    3.5390 hc        1 MOL      0.023921
     18 H7          3.5520    0.1360    3.1840 hc        1 MOL      0.023921
     19 N2          2.4020   -3.6310    1.2980 n         1 MOL     -0.311563
     20 C7          2.7110   -4.8990    0.7270 c3        1 MOL      0.299288
     21 C8          4.0760   -4.9450   -0.0630 c         1 MOL      0.114839
     22 O5          4.7310   -5.9600   -0.3110 o         1 MOL     -0.522861
     23 C9          1.5570   -5.4460   -0.1970 c3        1 MOL      0.127500
     24 C10         0.0850   -5.3320    0.4290 c3        1 MOL     -0.194392
     25 C11         1.8300   -6.8400   -0.5350 c3        1 MOL     -0.082332
     26 C12        -0.1030   -6.1420    1.7430 c3        1 MOL     -0.045399
     27 H8          1.7150   -3.0170    0.8890 hn        1 MOL      0.280392
     28 H9          2.8040   -5.5490    1.5950 h1        1 MOL      0.016409
     29 H10         1.6010   -4.8940   -1.1390 hc        1 MOL      0.030021
     30 H11        -0.6160   -5.7090   -0.3140 hc        1 MOL      0.075609
     31 H12        -0.1100   -4.2740    0.6020 hc        1 MOL      0.075609
     32 H13         0.9350   -7.3050   -0.9410 hc        1 MOL      0.003438
     33 H14         2.5500   -7.0050   -1.3280 hc        1 MOL      0.003438
     34 H15         2.0960   -7.4210    0.3490 hc        1 MOL      0.003438
     35 H16        -0.0580   -7.2160    1.5450 hc        1 MOL      0.001838
     36 H17         0.7260   -5.9540    2.4350 hc        1 MOL      0.001838
     37 H18        -1.1190   -5.9950    2.1110 hc        1 MOL      0.001838
     38 N3          4.4460   -3.7880   -0.6710 n         1 MOL      0.399307
     39 C13         5.4120   -3.7280   -1.7470 c3        1 MOL     -0.293795
     40 C14         6.7920   -3.4050   -1.2010 c         1 MOL      0.525638
     41 O6          7.8370   -3.8190   -1.8460 o         1 MOL     -0.544290
     42 C15         4.9910   -2.5710   -2.7140 c3        1 MOL     -0.029114
     43 C16         3.5500   -2.6180   -3.0800 c         1 MOL      0.675040
     44 O7          3.1770   -3.4280   -3.9510 o         1 MOL     -0.695150
     45 O8          2.7650   -1.8910   -2.4760 o         1 MOL     -0.695150
     46 H19         4.0140   -2.8830   -0.5010 hn        1 MOL     -0.270579
     47 H20         5.3740   -4.6630   -2.3110 h1        1 MOL      0.134275
     48 H21         5.5970   -2.4230   -3.6120 hc        1 MOL      0.046776
     49 H22         5.2700   -1.6140   -2.2630 hc        1 MOL      0.046776
     50 N4          6.9350   -2.6370   -0.0830 n         1 MOL     -0.426660
     51 C17         8.1810   -1.8530    0.1350 c3        1 MOL      0.089714
     52 C18         8.2840   -0.6240   -0.7960 c         1 MOL      0.437686
     53 O9          9.2570   -0.5070   -1.4980 o         1 MOL     -0.553721
     54 H23         6.1050   -2.3770    0.4230 hn        1 MOL      0.266300
     55 H24         9.1030   -2.4170    0.0240 h1        1 MOL      0.022282
     56 H25         8.1700   -1.4230    1.1300 h1        1 MOL      0.022282
     57 N5          7.2900    0.2540   -0.8230 n         1 MOL     -0.226466
     58 C19         7.3910    1.4880   -1.5720 c3        1 MOL      0.019457
     59 C20         7.2060    2.6610   -0.6300 c         1 MOL      0.460763
     60 O10         7.1320    3.7950   -1.1200 o         1 MOL     -0.522309
     61 C21         6.4300    1.4640   -2.7910 c3        1 MOL     -0.054922
     62 C22         4.9590    1.2780   -2.5170 c         1 MOL      0.723581
     63 O11         4.2350    0.6250   -3.2920 o         1 MOL     -0.750912
     64 O12         4.4710    1.8010   -1.5370 o         1 MOL     -0.750912
     65 H26         6.5120    0.0660   -0.2060 hn        1 MOL      0.139391
     66 H27         8.3830    1.6140   -2.0070 h1        1 MOL      0.070129
     67 H28         6.7730    0.5920   -3.3330 hc        1 MOL      0.016667
     68 H29         6.5970    2.3710   -3.3820 hc        1 MOL      0.016667
     69 N6          7.0290    2.4070    0.7120 n         1 MOL     -0.422684
     70 C23         6.8310    3.4110    1.6790 c3        1 MOL     -0.046806
     71 C24         5.5270    4.2440    1.5710 c         1 MOL      0.541756
     72 O13         5.4600    5.3350    2.1090 o         1 MOL     -0.604266
     73 H30         6.9130    1.4510    1.0190 hn        1 MOL      0.298638
     74 H31         7.6600    4.1140    1.7790 h1        1 MOL      0.063601
     75 H32         6.6950    2.8790    2.6240 h1        1 MOL      0.063601
     76 N7          4.5120    3.8430    0.7450 n         1 MOL     -0.316731
     77 C25         3.0960    4.2400    0.9410 c3        1 MOL      0.127726
     78 C26         2.0340    3.1350    1.2050 c         1 MOL      0.564395
     79 O14         2.2600    1.9810    0.7780 o         1 MOL     -0.635126
     80 C27         2.7020    5.1750   -0.2650 c3        1 MOL     -0.307602
     81 C28         3.3240    6.5640   -0.1190 c3        1 MOL     -0.038506
     82 C29         2.6700    7.6990   -0.9320 c         1 MOL      0.628687
     83 N8          3.2600    8.9060   -0.8240 n         1 MOL     -0.826939
     84 O15         1.6550    7.5580   -1.6480 o         1 MOL     -0.556208
     85 H33         4.7100    3.0950    0.0910 hn        1 MOL      0.261434
     86 H34         3.1050    4.6960    1.9280 h1        1 MOL      0.008749
     87 H35         1.6180    5.1130   -0.3660 hc        1 MOL      0.098119
     88 H36         3.2140    4.6730   -1.0790 hc        1 MOL      0.098119
     89 H37         4.3900    6.5480   -0.3830 hc        1 MOL      0.061239
     90 H38         3.1610    6.7870    0.9300 hc        1 MOL      0.061239
     91 H39         3.9380    9.1350   -0.1090 hn        1 MOL      0.357191
     92 H40         2.9020    9.5970   -1.4750 hn        1 MOL      0.357191
     93 N9          0.8620    3.5200    1.7290 n         1 MOL     -0.368239
     94 C30        -0.3930    2.7250    1.9250 c3        1 MOL     -0.130846
     95 C31        -1.5940    3.0480    1.0550 c         1 MOL      0.635084
     96 O16        -2.3730    3.9950    1.2960 o         1 MOL     -0.589610
     97 C32        -0.7640    2.5730    3.4530 c3        1 MOL      0.053873
     98 C33        -2.1180    1.9690    3.6550 c3        1 MOL     -0.186487
     99 C34         0.3170    1.6910    4.1750 c3        1 MOL     -0.186487
    100 H41         0.6660    4.4870    1.9670 hn        1 MOL      0.273389
    101 H42        -0.1890    1.6910    1.6310 h1        1 MOL      0.207557
    102 H43        -0.6750    3.5140    3.9840 hc        1 MOL      0.017062
    103 H44        -2.4080    1.7670    4.6900 hc        1 MOL      0.044847
    104 H45        -2.9010    2.6470    3.3070 hc        1 MOL      0.044847
    105 H46        -2.0780    1.0310    3.0940 hc        1 MOL      0.044847
    106 H47         0.1970    0.6450    3.9070 hc        1 MOL      0.044847
    107 H48         1.2570    2.1560    3.8780 hc        1 MOL      0.044847
    108 H49         0.2150    1.8640    5.2470 hc        1 MOL      0.044847
    109 N10        -1.8040    2.3320   -0.0550 n         1 MOL     -0.522715
    110 C35        -3.0460    2.4420   -0.8110 c3        1 MOL      0.331482
    111 C36        -4.2480    2.0460   -0.0040 c         1 MOL      0.118691
    112 O17        -4.2340    1.4810    1.0500 o         1 MOL     -0.169622
    113 C37        -2.9390    1.4590   -2.0690 c3        1 MOL     -0.583275
    114 C38        -4.0610    1.7690   -3.0670 c         1 MOL      0.649379
    115 N11        -4.2780    2.9890   -3.4630 n         1 MOL     -0.727850
    116 O18        -4.9850    1.0100   -3.3640 o         1 MOL     -0.488417
    117 H50        -1.3250    1.4380   -0.0750 hn        1 MOL      0.253042
    118 H51        -3.2280    3.4290   -1.2520 h1        1 MOL      0.020761
    119 H52        -2.9830    0.4220   -1.7350 hc        1 MOL      0.221357
    120 H53        -1.9580    1.5720   -2.5360 hc        1 MOL      0.221357
    121 H54        -3.5720    3.6950   -3.3230 hn        1 MOL      0.344685
    122 H55        -5.0520    3.1810   -4.1020 hn        1 MOL      0.344685
    123 N12        -5.4420    2.3680   -0.5470 n         1 MOL     -0.262814
    124 C39        -6.7740    2.0400   -0.0190 c3        1 MOL      0.135619
    125 C40        -6.9010    0.5400    0.1070 c         1 MOL      0.704740
    126 O19        -7.3250   -0.0380    1.0860 o         1 MOL     -0.596461
    127 C41        -7.9900    2.6750   -0.7740 c3        1 MOL     -0.213886
    128 C42        -9.3300    2.0140   -0.5270 ca        1 MOL     -0.011232
    129 C43        -9.9240    2.3290    0.7280 ca        1 MOL     -0.162796
    130 C44        -9.8130    1.0330   -1.3980 ca        1 MOL     -0.162796
    131 C45       -11.1410    1.6740    1.0570 ca        1 MOL     -0.248453
    132 C46       -11.0510    0.5090   -1.0990 ca        1 MOL     -0.248453
    133 C47       -11.7120    0.7890    0.1050 ca        1 MOL      0.368630
    134 O20       -12.8540    0.1940    0.3840 oh        1 MOL     -0.520635
    135 H56        -5.4790    2.9260   -1.3910 hn        1 MOL      0.173857
    136 H57        -6.6370    2.3720    1.0150 h1        1 MOL      0.003170
    137 H58        -7.6950    2.6120   -1.8280 hc        1 MOL      0.078555
    138 H59        -7.9700    3.7290   -0.4620 hc        1 MOL      0.078555
    139 H60        -9.3360    2.8710    1.4550 ha        1 MOL      0.151267
    140 H61        -9.2950    0.7710   -2.3130 ha        1 MOL      0.151267
    141 H62       -11.6130    1.8870    2.0030 ha        1 MOL      0.138610
    142 H63       -11.4100   -0.2140   -1.8190 ha        1 MOL      0.138610
    143 H64       -13.1600   -0.4070   -0.3020 ho        1 MOL      0.379987
    144 N13        -6.5250   -0.1900   -0.9230 n         1 MOL     -0.228250
    145 C48        -6.4620   -1.6570   -0.9880 c3        1 MOL     -0.237683
    146 C49        -5.6090   -2.3560    0.0930 c         1 MOL      0.416268
    147 O21        -5.8270   -3.5180    0.4530 o         1 MOL     -0.507375
    148 C50        -6.0060   -1.9070   -2.4430 c3        1 MOL      0.248886
    149 C51        -6.1580   -3.3030   -2.9140 c3        1 MOL     -0.588501
    150 C52        -5.9240   -3.3760   -4.4950 c         1 MOL      0.821795
    151 O22        -4.8400   -3.1490   -4.9700 o         1 MOL     -0.759154
    152 O23        -6.9140   -3.5140   -5.2270 o         1 MOL     -0.759154
    153 H65        -6.2810    0.3730   -1.7190 hn        1 MOL      0.103590
    154 H66        -7.4800   -1.9990   -0.8120 h1        1 MOL      0.128725
    155 H67        -4.9550   -1.6240   -2.5190 hc        1 MOL      0.027248
    156 H68        -6.5000   -1.2560   -3.1760 hc        1 MOL      0.027248
    157 H69        -7.0950   -3.7170   -2.5580 hc        1 MOL      0.103700
    158 H70        -5.4240   -3.9280   -2.4150 hc        1 MOL      0.103700
    159 N14        -4.5890   -1.6930    0.5930 n         1 MOL     -0.085055
    160 C53        -3.6660   -2.1250    1.6030 c3        1 MOL     -0.167366
    161 C54        -4.2220   -1.8190    3.0070 c         1 MOL      0.415443
    162 O24        -4.0760   -2.6470    3.9330 o         1 MOL     -0.542588
    163 C55        -2.3170   -1.4560    1.4380 c3        1 MOL      0.165872
    164 C56        -1.7630   -1.7120    0.0420 c3        1 MOL      0.058507
    165 C57        -0.3790   -1.0630   -0.1770 c         1 MOL      0.635880
    166 O25         0.6480   -1.7410   -0.3060 o         1 MOL     -0.753108
    167 O26        -0.2440    0.1530   -0.2290 o         1 MOL     -0.753108
    168 H71        -4.5200   -0.6990    0.4180 hn        1 MOL      0.049000
    169 H72        -3.5650   -3.1980    1.4550 h1        1 MOL      0.140933
    170 H73        -1.6690   -1.7480    2.2630 hc        1 MOL      0.008736
    171 H74        -2.3610   -0.3760    1.5960 hc        1 MOL      0.008736
    172 H75        -2.3800   -1.3310   -0.7710 hc        1 MOL     -0.023723
    173 H76        -1.7330   -2.7770   -0.1900 hc        1 MOL     -0.023723
    174 N15        -5.0020   -0.7160    3.2100 n         1 MOL      0.008343
    175 C58        -5.7020   -0.3650    4.4760 c3        1 MOL     -0.256637
    176 H77        -4.9920   -0.3970    5.3030 h1        1 MOL      0.093273
    177 H78        -6.1190    0.6380    4.3950 h1        1 MOL      0.093273
    178 H79        -6.5040   -1.0800    4.6600 h1        1 MOL      0.093273
    179 H80        -4.9390   -0.0410    2.4600 hn        1 MOL     -0.026267
    180 Ca1         2.2270    0.2730   -1.2100 Ca        1 MOL      1.774276
    181 O27         0.4430   -0.1210   -3.2540 oh        1 MOL     -0.834631
    182 H81         0.7040   -1.0040   -3.5050 ho        1 MOL      0.409285
    183 H82        -0.4900   -0.0830   -3.4360 ho        1 MOL      0.409285
    184 O28         2.1840    2.7440   -2.7190 oh        1 MOL     -0.834631
    185 H83         3.0940    2.9100   -2.5000 ho        1 MOL      0.409285
    186 H84         2.1430    2.8650   -3.6660 ho        1 MOL      0.409285
@<TRIPOS>BOND
     1    1    2 1   
     2    1    4 1   
     3    1    5 1   
     4    1    6 1   
     5    2    3 2   
     6    2    7 1   
     7    7    8 1   
     8    7   15 1   
     9    8    9 1   
    10    8   11 1   
    11    8   16 1   
    12    9   10 2   
    13    9   19 1   
    14   11   12 1   
    15   11   17 1   
    16   11   18 1   
    17   12   13 1   
    18   12   14 1   
    19   19   20 1   
    20   19   27 1   
    21   20   21 1   
    22   20   23 1   
    23   20   28 1   
    24   21   22 2   
    25   21   38 1   
    26   23   24 1   
    27   23   25 1   
    28   23   29 1   
    29   24   26 1   
    30   24   30 1   
    31   24   31 1   
    32   25   32 1   
    33   25   33 1   
    34   25   34 1   
    35   26   35 1   
    36   26   36 1   
    37   26   37 1   
    38   38   39 1   
    39   38   46 1   
    40   39   40 1   
    41   39   42 1   
    42   39   47 1   
    43   40   41 2   
    44   40   50 1   
    45   42   43 1   
    46   42   48 1   
    47   42   49 1   
    48   43   44 1   
    49   43   45 1   
    50   50   51 1   
    51   50   54 1   
    52   51   52 1   
    53   51   55 1   
    54   51   56 1   
    55   52   53 2   
    56   52   57 1   
    57   57   58 1   
    58   57   65 1   
    59   58   59 1   
    60   58   61 1   
    61   58   66 1   
    62   59   60 2   
    63   59   69 1   
    64   61   62 1   
    65   61   67 1   
    66   61   68 1   
    67   62   63 1   
    68   62   64 1   
    69   69   70 1   
    70   69   73 1   
    71   70   71 1   
    72   70   74 1   
    73   70   75 1   
    74   71   72 2   
    75   71   76 1   
    76   76   77 1   
    77   76   85 1   
    78   77   78 1   
    79   77   80 1   
    80   77   86 1   
    81   78   79 2   
    82   78   93 1   
    83   80   81 1   
    84   80   87 1   
    85   80   88 1   
    86   81   82 1   
    87   81   89 1   
    88   81   90 1   
    89   82   83 1   
    90   82   84 2   
    91   83   91 1   
    92   83   92 1   
    93   93   94 1   
    94   93  100 1   
    95   94   95 1   
    96   94   97 1   
    97   94  101 1   
    98   95   96 2   
    99   95  109 1   
   100   97   98 1   
   101   97   99 1   
   102   97  102 1   
   103   98  103 1   
   104   98  104 1   
   105   98  105 1   
   106   99  106 1   
   107   99  107 1   
   108   99  108 1   
   109  109  110 1   
   110  109  117 1   
   111  110  111 1   
   112  110  113 1   
   113  110  118 1   
   114  111  112 2   
   115  111  123 1   
   116  113  114 1   
   117  113  119 1   
   118  113  120 1   
   119  114  115 1   
   120  114  116 2   
   121  115  121 1   
   122  115  122 1   
   123  123  124 1   
   124  123  135 1   
   125  124  125 1   
   126  124  127 1   
   127  124  136 1   
   128  125  126 2   
   129  125  144 1   
   130  127  128 1   
   131  127  137 1   
   132  127  138 1   
   133  128  129 ar  
   134  128  130 ar  
   135  129  131 ar  
   136  129  139 1   
   137  130  132 ar  
   138  130  140 1   
   139  131  133 ar  
   140  131  141 1   
   141  132  133 ar  
   142  132  142 1   
   143  133  134 1   
   144  134  143 1   
   145  144  145 1   
   146  144  153 1   
   147  145  146 1   
   148  145  148 1   
   149  145  154 1   
   150  146  147 2   
   151  146  159 1   
   152  148  149 1   
   153  148  155 1   
   154  148  156 1   
   155  149  150 1   
   156  149  157 1   
   157  149  158 1   
   158  150  151 1   
   159  150  152 1   
   160  159  160 1   
   161  159  168 1   
   162  160  161 1   
   163  160  163 1   
   164  160  169 1   
   165  161  162 2   
   166  161  174 1   
   167  163  164 1   
   168  163  170 1   
   169  163  171 1   
   170  164  165 1   
   171  164  172 1   
   172  164  173 1   
   173  165  166 1   
   174  165  167 1   
   175  174  175 1   
   176  174  179 1   
   177  175  176 1   
   178  175  177 1   
   179  175  178 1   
   180  181  182 1   
   181  181  183 1   
   182  184  185 1   
   183  184  186 1   
@<TRIPOS>SUBSTRUCTURE
     1 MOL         1 TEMP              0 ****  ****    0 ROOT
