@<TRIPOS>MOLECULE
MOL
  189   185     1     0     0
SMALL
resp


@<TRIPOS>ATOM
      1 C1          0.1230    2.1650    5.8390 c3        1 MOL     -0.453973
      2 C2         -0.2630    2.0560    4.3950 c         1 MOL      0.754847
      3 O1          0.5230    2.2440    3.4410 o         1 MOL     -0.688156
      4 H1          1.0900    2.6600    5.9200 hc        1 MOL      0.120332
      5 H2         -0.6280    2.7480    6.3730 hc        1 MOL      0.120332
      6 H3          0.1870    1.1680    6.2750 hc        1 MOL      0.120332
      7 N1         -1.5380    1.7640    4.1250 n         1 MOL     -0.588259
      8 C3         -2.0710    1.5310    2.7650 c3        1 MOL      0.039772
      9 C4         -2.5560    2.8690    2.1490 c         1 MOL      0.387134
     10 O2         -3.6170    3.3400    2.4650 o         1 MOL     -0.530368
     11 C5         -3.1890    0.4620    2.8650 c3        1 MOL     -0.060212
     12 C6         -3.9300    0.1950    1.5470 c         1 MOL      0.748666
     13 O3         -5.1450   -0.1370    1.5660 o         1 MOL     -0.753434
     14 O4         -3.3690    0.3190    0.4540 o         1 MOL     -0.753434
     15 H4         -2.1900    1.7530    4.8940 hn        1 MOL      0.325473
     16 H5         -1.2840    1.0090    2.2090 h1        1 MOL      0.040520
     17 H6         -3.9100    0.6610    3.6490 hc        1 MOL      0.017898
     18 H7         -2.6890   -0.4470    3.2070 hc        1 MOL      0.017898
     19 N2         -1.8590    3.4450    1.1580 n         1 MOL     -0.019523
     20 C7         -2.0980    4.8570    0.8490 c3        1 MOL     -0.114488
     21 C8         -3.0500    4.9750   -0.3460 c         1 MOL      0.613045
     22 O5         -3.1290    6.0740   -0.8830 o         1 MOL     -0.594825
     23 C9         -0.7720    5.6090    0.4880 c3        1 MOL     -0.075529
     24 C10         0.3510    5.4670    1.4710 c3        1 MOL      0.200536
     25 C11         1.1770    6.7180    1.6530 c3        1 MOL     -0.340116
     26 C12         0.4670    7.8370    2.5090 c3        1 MOL      0.006043
     27 N3          0.2390    7.4840    3.9620 n4        1 MOL     -0.314007
     28 H8         -1.2180    2.8410    0.6690 hn        1 MOL      0.160708
     29 H9         -2.6310    5.3290    1.6770 h1        1 MOL      0.057870
     30 H10        -1.0000    6.6670    0.3730 hc        1 MOL      0.053323
     31 H11        -0.3910    5.3030   -0.4890 hc        1 MOL      0.053323
     32 H12         0.9590    4.5990    1.1890 hc        1 MOL      0.014273
     33 H13        -0.0680    5.2030    2.4350 hc        1 MOL      0.014273
     34 H14         1.3170    7.1410    0.6570 hc        1 MOL      0.121921
     35 H15         2.1350    6.4350    2.0950 hc        1 MOL      0.121921
     36 H16        -0.4640    8.1510    2.0190 hx        1 MOL      0.095508
     37 H17         1.1400    8.6950    2.5440 hx        1 MOL      0.095508
     38 H18        -0.5550    6.8970    4.1520 hn        1 MOL      0.314671
     39 H19         1.0590    7.1280    4.4260 hn        1 MOL      0.314671
     40 H20        -0.0090    8.3110    4.4870 hn        1 MOL      0.314671
     41 N4         -3.7580    3.9210   -0.7140 n         1 MOL     -0.448362
     42 C13        -4.7670    3.9260   -1.8020 c3        1 MOL      0.070946
     43 C14        -5.9710    2.8650   -1.7350 c         1 MOL      0.364963
     44 O6         -6.6870    2.5560   -2.6810 o         1 MOL     -0.461309
     45 C15        -4.1040    3.6860   -3.2120 c3        1 MOL     -0.054756
     46 C16        -3.0050    2.7110   -3.3190 c         1 MOL      0.765688
     47 O7         -3.0350    1.7420   -2.5140 o         1 MOL     -0.725616
     48 O8         -1.9420    2.8610   -4.0270 o         1 MOL     -0.725616
     49 H21        -3.5640    3.0180   -0.2980 hn        1 MOL      0.208734
     50 H22        -5.2160    4.9090   -1.8700 h1        1 MOL      0.075806
     51 H23        -3.5500    4.6020   -3.3940 hc        1 MOL      0.005360
     52 H24        -4.8610    3.6530   -3.9930 hc        1 MOL      0.005360
     53 N5         -6.1470    2.3280   -0.5270 n         1 MOL     -0.190540
     54 C17        -7.3510    1.6740   -0.2090 c3        1 MOL     -0.353711
     55 C18        -7.6290    0.3090   -0.7600 c         1 MOL      0.552168
     56 O9         -8.7360   -0.1910   -0.6010 o         1 MOL     -0.594234
     57 H25        -5.5970    2.7060    0.2280 hn        1 MOL      0.241320
     58 H26        -8.1810    2.3370   -0.4140 h1        1 MOL      0.151914
     59 H27        -7.2540    1.5960    0.8700 h1        1 MOL      0.151914
     60 N6         -6.6320   -0.3880   -1.2950 n         1 MOL     -0.202008
     61 C19        -6.8480   -1.7570   -1.8380 c3        1 MOL     -0.188613
     62 C20        -6.9100   -2.9250   -0.8220 c         1 MOL      0.475644
     63 O10        -7.3830   -4.0180   -1.1450 o         1 MOL     -0.540870
     64 C21        -5.9510   -2.0770   -3.0940 c3        1 MOL     -0.127509
     65 C22        -4.5370   -1.7540   -2.6860 c         1 MOL      0.622317
     66 O11        -3.8590   -1.0140   -3.4580 o         1 MOL     -0.697960
     67 O12        -4.0990   -2.1530   -1.5930 o         1 MOL     -0.697960
     68 H28        -5.7760    0.1440   -1.3240 hn        1 MOL      0.268245
     69 H29        -7.8840   -1.7460   -2.1880 h1        1 MOL      0.139939
     70 H30        -6.2610   -1.5400   -3.9910 hc        1 MOL      0.063571
     71 H31        -6.0240   -3.1370   -3.3270 hc        1 MOL      0.063571
     72 N7         -6.6030   -2.6700    0.4290 n         1 MOL     -0.170071
     73 C23        -6.5700   -3.6850    1.4800 c3        1 MOL     -0.289388
     74 C24        -5.1590   -4.3420    1.5610 c         1 MOL      0.730420
     75 O13        -5.0570   -5.4650    2.0820 o         1 MOL     -0.604421
     76 H32        -6.3550   -1.7520    0.7560 hn        1 MOL      0.294743
     77 H33        -7.2270   -4.5030    1.1680 h1        1 MOL      0.121412
     78 H34        -6.7210   -3.2630    2.4700 h1        1 MOL      0.121412
     79 N8         -4.0900   -3.7710    0.9090 n         1 MOL     -0.637810
     80 C25        -2.7900   -4.4540    0.7070 c3        1 MOL     -0.015830
     81 C26        -1.6450   -3.4700    0.7240 c         1 MOL      0.775079
     82 O14        -1.7290   -2.4680    0.0310 o         1 MOL     -0.697593
     83 C27        -2.6470   -5.1990   -0.6750 c3        1 MOL      0.597013
     84 C28        -2.7560   -6.6930   -0.4090 c3        1 MOL     -0.440106
     85 O15        -3.6340   -4.8490   -1.6100 oh        1 MOL     -0.677191
     86 H35        -4.2120   -2.9540    0.3330 hn        1 MOL      0.374302
     87 H36        -2.7240   -5.1870    1.4980 h1        1 MOL      0.059463
     88 H37        -1.6780   -5.0550   -1.1560 h1        1 MOL     -0.078392
     89 H38        -3.7040   -3.8890   -1.6240 ho        1 MOL      0.455115
     90 H39        -1.9230   -7.0280    0.2160 hc        1 MOL      0.099316
     91 H40        -3.7240   -6.8060    0.0850 hc        1 MOL      0.099316
     92 H41        -2.7220   -7.2300   -1.3550 hc        1 MOL      0.099316
     93 N9         -0.6130   -3.7980    1.5170 n         1 MOL     -0.807766
     94 C29         0.4920   -2.8890    1.6870 c3        1 MOL      0.118656
     95 C30         1.7220   -3.4630    0.9790 c         1 MOL      0.465389
     96 O16         1.9430   -4.6850    1.1280 o         1 MOL     -0.538902
     97 C31         0.9250   -2.6180    3.1790 c3        1 MOL      0.257884
     98 C32        -0.3430   -2.1680    4.0150 c3        1 MOL      0.139479
     99 C33         2.1390   -1.6490    3.4030 c3        1 MOL     -0.596770
    100 C34        -0.4080   -2.4280    5.4260 c3        1 MOL     -0.271770
    101 H42        -0.5280   -4.7300    1.8910 hn        1 MOL      0.362008
    102 H43         0.1470   -1.9760    1.2040 h1        1 MOL      0.051205
    103 H44         1.2940   -3.5370    3.6090 hc        1 MOL     -0.032643
    104 H45        -1.2990   -2.5090    3.6010 hc        1 MOL      0.019056
    105 H46        -0.3930   -1.0760    3.9820 hc        1 MOL      0.019056
    106 H47         1.8320   -0.6660    3.0600 hc        1 MOL      0.125545
    107 H48         2.3460   -1.6810    4.4720 hc        1 MOL      0.125545
    108 H49         2.9830   -1.9430    2.7810 hc        1 MOL      0.125545
    109 H50        -1.2960   -1.9420    5.8330 hc        1 MOL      0.055004
    110 H51        -0.4030   -3.5070    5.5920 hc        1 MOL      0.055004
    111 H52         0.4210   -1.9620    5.9470 hc        1 MOL      0.055004
    112 N10         2.4330   -2.6800    0.0790 n         1 MOL     -0.093160
    113 C35         3.6130   -3.1560   -0.7010 c3        1 MOL     -0.088600
    114 C36         4.9330   -2.8410    0.0470 c         1 MOL      0.321300
    115 O17         4.9270   -2.0010    0.9190 o         1 MOL     -0.269035
    116 C37         3.7780   -2.5300   -2.0860 c3        1 MOL      0.140696
    117 C38         2.4520   -2.5930   -2.8650 c3        1 MOL     -0.401383
    118 O18         4.1090   -1.1460   -1.9010 oh        1 MOL     -0.531096
    119 H53         2.0250   -1.7990   -0.1940 hn        1 MOL      0.156967
    120 H54         3.4940   -4.2450   -0.7830 h1        1 MOL      0.070962
    121 H55         4.6220   -3.0320   -2.5650 h1        1 MOL      0.044114
    122 H56         3.7380   -0.7350   -2.6890 ho        1 MOL      0.415313
    123 H57         1.8910   -3.4920   -2.6050 hc        1 MOL      0.116586
    124 H58         1.8800   -1.7180   -2.5600 hc        1 MOL      0.116586
    125 H59         2.7170   -2.6410   -3.9240 hc        1 MOL      0.116586
    126 N11         6.1050   -3.2950   -0.4830 n         1 MOL     -0.255621
    127 C39         7.3660   -2.9410    0.1840 c3        1 MOL     -0.207184
    128 C40         7.7060   -1.4270    0.1520 c         1 MOL      0.416618
    129 O19         8.0030   -0.8540    1.2190 o         1 MOL     -0.483573
    130 C41         8.6410   -3.6950   -0.3390 c3        1 MOL      0.406953
    131 C42         8.6700   -5.0500    0.3070 c3        1 MOL     -0.362788
    132 O20         8.9030   -3.8200   -1.7070 oh        1 MOL     -0.651671
    133 H60         6.1490   -3.9570   -1.2440 hn        1 MOL      0.292159
    134 H61         7.3240   -3.1550    1.2610 h1        1 MOL      0.143576
    135 H62         9.4930   -3.2040    0.1270 h1        1 MOL      0.009528
    136 H63         9.8040   -4.1470   -1.7760 ho        1 MOL      0.418321
    137 H64         7.9290   -5.6820   -0.1790 hc        1 MOL      0.088585
    138 H65         9.6830   -5.3590    0.0360 hc        1 MOL      0.088585
    139 H66         8.5870   -5.0340    1.3940 hc        1 MOL      0.088585
    140 N12         7.2950   -0.8080   -0.9670 n         1 MOL     -0.365660
    141 C43         7.2890    0.6760   -1.1820 c3        1 MOL     -0.119337
    142 C44         6.3730    1.3840   -0.1080 c         1 MOL      0.374147
    143 O21         6.7440    2.4200    0.4250 o         1 MOL     -0.504758
    144 C45         6.9710    0.9750   -2.6480 c3        1 MOL      0.030878
    145 C46         6.8630    2.4520   -3.0140 c3        1 MOL     -0.316293
    146 C47         6.5030    2.6650   -4.5040 c3        1 MOL      0.118426
    147 C48         6.7880    4.1330   -4.9190 c3        1 MOL      0.033754
    148 N13         6.8090    4.3960   -6.3610 n4        1 MOL     -0.370132
    149 H67         6.9030   -1.4370   -1.6530 hn        1 MOL      0.255710
    150 H68         8.3250    0.9910   -1.0480 h1        1 MOL      0.151981
    151 H69         5.9540    0.5980   -2.8160 hc        1 MOL      0.026819
    152 H70         7.5390    0.3790   -3.3500 hc        1 MOL      0.026819
    153 H71         7.8420    2.8390   -2.7270 hc        1 MOL      0.106948
    154 H72         6.1350    3.0240   -2.4470 hc        1 MOL      0.106948
    155 H73         5.4880    2.3300   -4.6900 hc        1 MOL      0.009230
    156 H74         7.0840    2.0320   -5.1700 hc        1 MOL      0.009230
    157 H75         7.7540    4.3980   -4.4870 hx        1 MOL      0.083068
    158 H76         6.1270    4.8220   -4.3900 hx        1 MOL      0.083068
    159 H77         7.1300    5.3420   -6.5300 hn        1 MOL      0.310796
    160 H78         7.3990    3.7810   -6.8930 hn        1 MOL      0.310796
    161 H79         5.8520    4.2760   -6.6610 hn        1 MOL      0.310796
    162 N14         5.1600    0.9050    0.0780 n         1 MOL      0.014681
    163 C49         4.2560    1.5230    1.0420 c3        1 MOL     -0.309544
    164 C50         4.7320    1.3970    2.5690 c         1 MOL      0.407916
    165 O22         4.6630    2.2780    3.4250 o         1 MOL     -0.536081
    166 C51         2.7610    0.9530    0.9400 c3        1 MOL      0.127738
    167 C52         2.0690    1.4920   -0.2880 c3        1 MOL     -0.243477
    168 C53         0.7420    0.8070   -0.5460 c         1 MOL      0.678921
    169 O23        -0.3170    1.4900   -0.4740 o         1 MOL     -0.679946
    170 O24         0.6520   -0.4290   -0.8080 o         1 MOL     -0.679946
    171 H80         4.8920    0.0780   -0.4250 hn        1 MOL      0.147497
    172 H81         4.2510    2.5940    0.8050 h1        1 MOL      0.119583
    173 H82         2.2160    1.3430    1.8030 hc        1 MOL      0.088183
    174 H83         2.8960   -0.1280    0.8400 hc        1 MOL      0.088183
    175 H84         2.7960    1.2470   -1.0700 hc        1 MOL      0.031312
    176 H85         1.9030    2.5700   -0.1690 hc        1 MOL      0.031312
    177 N15         5.3150    0.2270    2.8830 n         1 MOL      0.078636
    178 C54         5.8680   -0.0140    4.1870 c3        1 MOL     -0.374855
    179 H86         6.9220    0.2630    4.1910 h1        1 MOL      0.122109
    180 H87         5.3330    0.5820    4.9260 h1        1 MOL      0.122109
    181 H88         5.7710   -1.0720    4.4330 h1        1 MOL      0.122109
    182 H89         5.4010   -0.3970    2.1070 hn        1 MOL      0.069728
    183 Ca1        -1.9140   -0.4520   -1.6170 Ca        1 MOL      1.788264
    184 O25        -1.0640    0.2870   -4.1890 oh        1 MOL     -0.874136
    185 H90        -1.3130   -0.1190   -5.0080 ho        1 MOL      0.408130
    186 H91        -1.3710    1.1870   -4.2610 ho        1 MOL      0.408130
    187 O26        -0.8550   -2.3110   -3.0020 oh        1 MOL     -0.874136
    188 H92        -0.1620   -1.9290   -3.5290 ho        1 MOL      0.408130
    189 H93        -0.9150   -3.2170   -3.2900 ho        1 MOL      0.408130
@<TRIPOS>BOND
     1    1    2 1   
     2    1    4 1   
     3    1    5 1   
     4    1    6 1   
     5    2    3 2   
     6    2    7 1   
     7    7    8 1   
     8    7   15 1   
     9    8    9 1   
    10    8   11 1   
    11    8   16 1   
    12    9   10 2   
    13    9   19 1   
    14   11   12 1   
    15   11   17 1   
    16   11   18 1   
    17   12   13 1   
    18   12   14 1   
    19   19   20 1   
    20   19   28 1   
    21   20   21 1   
    22   20   23 1   
    23   20   29 1   
    24   21   22 2   
    25   21   41 1   
    26   23   24 1   
    27   23   30 1   
    28   23   31 1   
    29   24   25 1   
    30   24   32 1   
    31   24   33 1   
    32   25   26 1   
    33   25   34 1   
    34   25   35 1   
    35   26   27 1   
    36   26   36 1   
    37   26   37 1   
    38   27   38 1   
    39   27   39 1   
    40   27   40 1   
    41   41   42 1   
    42   41   49 1   
    43   42   43 1   
    44   42   45 1   
    45   42   50 1   
    46   43   44 2   
    47   43   53 1   
    48   45   46 1   
    49   45   51 1   
    50   45   52 1   
    51   46   47 1   
    52   46   48 1   
    53   53   54 1   
    54   53   57 1   
    55   54   55 1   
    56   54   58 1   
    57   54   59 1   
    58   55   56 2   
    59   55   60 1   
    60   60   61 1   
    61   60   68 1   
    62   61   62 1   
    63   61   64 1   
    64   61   69 1   
    65   62   63 2   
    66   62   72 1   
    67   64   65 1   
    68   64   70 1   
    69   64   71 1   
    70   65   66 1   
    71   65   67 1   
    72   72   73 1   
    73   72   76 1   
    74   73   74 1   
    75   73   77 1   
    76   73   78 1   
    77   74   75 2   
    78   74   79 1   
    79   79   80 1   
    80   79   86 1   
    81   80   81 1   
    82   80   83 1   
    83   80   87 1   
    84   81   82 2   
    85   81   93 1   
    86   83   84 1   
    87   83   85 1   
    88   83   88 1   
    89   84   90 1   
    90   84   91 1   
    91   84   92 1   
    92   85   89 1   
    93   93   94 1   
    94   93  101 1   
    95   94   95 1   
    96   94   97 1   
    97   94  102 1   
    98   95   96 2   
    99   95  112 1   
   100   97   98 1   
   101   97   99 1   
   102   97  103 1   
   103   98  100 1   
   104   98  104 1   
   105   98  105 1   
   106   99  106 1   
   107   99  107 1   
   108   99  108 1   
   109  100  109 1   
   110  100  110 1   
   111  100  111 1   
   112  112  113 1   
   113  112  119 1   
   114  113  114 1   
   115  113  116 1   
   116  113  120 1   
   117  114  115 2   
   118  114  126 1   
   119  116  117 1   
   120  116  118 1   
   121  116  121 1   
   122  117  123 1   
   123  117  124 1   
   124  117  125 1   
   125  118  122 1   
   126  126  127 1   
   127  126  133 1   
   128  127  128 1   
   129  127  130 1   
   130  127  134 1   
   131  128  129 2   
   132  128  140 1   
   133  130  131 1   
   134  130  132 1   
   135  130  135 1   
   136  131  137 1   
   137  131  138 1   
   138  131  139 1   
   139  132  136 1   
   140  140  141 1   
   141  140  149 1   
   142  141  142 1   
   143  141  144 1   
   144  141  150 1   
   145  142  143 2   
   146  142  162 1   
   147  144  145 1   
   148  144  151 1   
   149  144  152 1   
   150  145  146 1   
   151  145  153 1   
   152  145  154 1   
   153  146  147 1   
   154  146  155 1   
   155  146  156 1   
   156  147  148 1   
   157  147  157 1   
   158  147  158 1   
   159  148  159 1   
   160  148  160 1   
   161  148  161 1   
   162  162  163 1   
   163  162  171 1   
   164  163  164 1   
   165  163  166 1   
   166  163  172 1   
   167  164  165 2   
   168  164  177 1   
   169  166  167 1   
   170  166  173 1   
   171  166  174 1   
   172  167  168 1   
   173  167  175 1   
   174  167  176 1   
   175  168  169 1   
   176  168  170 1   
   177  177  178 1   
   178  177  182 1   
   179  178  179 1   
   180  178  180 1   
   181  178  181 1   
   182  184  185 1   
   183  184  186 1   
   184  187  188 1   
   185  187  189 1   
@<TRIPOS>SUBSTRUCTURE
     1 MOL         1 TEMP              0 ****  ****    0 ROOT
