@<TRIPOS>MOLECULE
MOL
  175   173     1     0     0
SMALL
resp


@<TRIPOS>ATOM
      1 C1          0.0050    4.9290    5.2290 c3        1 MOL     -0.398601
      2 C2         -0.4300    4.3800    3.8060 c         1 MOL      0.741152
      3 O1          0.3660    4.0340    2.9170 o         1 MOL     -0.574058
      4 H1         -0.5000    4.3580    6.0080 hc        1 MOL      0.102523
      5 H2          1.0840    4.8240    5.3460 hc        1 MOL      0.102523
      6 H3         -0.2700    5.9810    5.3130 hc        1 MOL      0.102523
      7 N1         -1.7370    4.2820    3.5580 n         1 MOL     -0.721327
      8 C3         -2.3040    3.8440    2.3370 c3        1 MOL      0.335848
      9 C4         -2.3290    4.9020    1.1900 c         1 MOL      0.507230
     10 O2         -2.4610    6.0870    1.3990 o         1 MOL     -0.590619
     11 C5         -3.6980    3.3470    2.5400 c3        1 MOL     -0.433513
     12 C6         -4.2790    2.4450    1.4220 c         1 MOL      0.752515
     13 O3         -5.5490    2.2320    1.3700 o         1 MOL     -0.713596
     14 O4         -3.6690    1.8880    0.4930 o         1 MOL     -0.713596
     15 H4         -2.4230    4.5660    4.2570 hn        1 MOL      0.334128
     16 H5         -1.6740    3.0470    1.9160 h1        1 MOL      0.074288
     17 H6         -4.3030    4.2200    2.8030 hc        1 MOL      0.098394
     18 H7         -3.6560    2.6550    3.3830 hc        1 MOL      0.098394
     19 N2         -2.3910    4.4400   -0.0240 n         1 MOL     -0.320219
     20 C7         -2.4720    5.2830   -1.2110 c3        1 MOL      0.042565
     21 C8         -3.3180    4.7390   -2.3080 c         1 MOL      0.547193
     22 O5         -3.2950    5.3270   -3.3810 o         1 MOL     -0.566013
     23 C9         -0.9960    5.2300   -1.7140 c3        1 MOL     -0.074402
     24 H8         -2.1060    3.4890   -0.2030 hn        1 MOL      0.272710
     25 H9         -2.8460    6.2770   -0.9790 h1        1 MOL      0.065491
     26 H10        -0.8600    5.7620   -2.6530 hc        1 MOL      0.017664
     27 H11        -0.3650    5.8310   -1.0450 hc        1 MOL      0.017664
     28 H12        -0.5930    4.2300   -1.6170 hc        1 MOL      0.017664
     29 N3         -3.9880    3.5500   -2.1350 n         1 MOL     -0.468465
     30 C10        -4.6730    2.8180   -3.2260 c3        1 MOL      0.047223
     31 C11        -5.8890    2.0390   -2.7570 c         1 MOL      0.406546
     32 O6         -6.5760    1.5750   -3.6280 o         1 MOL     -0.538293
     33 C12        -3.7190    1.9010   -3.9380 c3        1 MOL     -0.075534
     34 C13        -3.0230    0.9060   -2.9580 c         1 MOL      0.727504
     35 O7         -3.7150    0.5100   -2.0210 o         1 MOL     -0.727818
     36 O8         -1.8590    0.5380   -3.1140 o         1 MOL     -0.727818
     37 H13        -3.8830    3.0340   -1.2630 hn        1 MOL      0.188384
     38 H14        -4.9740    3.5170   -4.0090 h1        1 MOL      0.081345
     39 H15        -2.8740    2.4740   -4.3270 hc        1 MOL      0.021376
     40 H16        -4.1470    1.4110   -4.8130 hc        1 MOL      0.021376
     41 N4         -6.1500    1.9020   -1.4950 n         1 MOL     -0.253534
     42 C14        -7.3570    1.1870   -1.1150 c3        1 MOL     -0.097286
     43 C15        -7.3360   -0.2660   -1.4600 c         1 MOL      0.484859
     44 O9         -8.4380   -0.7570   -1.6960 o         1 MOL     -0.590400
     45 H17        -5.5700    2.2250   -0.7370 hn        1 MOL      0.234836
     46 H18        -8.2600    1.6360   -1.5340 h1        1 MOL      0.084672
     47 H19        -7.5060    1.2630   -0.0430 h1        1 MOL      0.084672
     48 N5         -6.1410   -0.9600   -1.5510 n         1 MOL     -0.256080
     49 C16        -6.0480   -2.4000   -1.9870 c3        1 MOL     -0.133041
     50 C17        -6.0420   -3.4760   -0.8550 c         1 MOL      0.343907
     51 O10        -5.7900   -4.6650   -1.1170 o         1 MOL     -0.526991
     52 C18        -4.8090   -2.4540   -2.8670 c3        1 MOL      0.024936
     53 C19        -3.4640   -2.4820   -2.1240 c         1 MOL      0.249639
     54 N6         -2.4400   -2.7900   -2.8520 n         1 MOL     -0.531772
     55 O11        -3.3020   -2.2030   -0.9250 o         1 MOL     -0.180748
     56 H20        -5.3420   -0.3410   -1.6130 hn        1 MOL      0.298827
     57 H21        -6.8600   -2.6270   -2.6860 h1        1 MOL      0.129101
     58 H22        -4.8560   -1.7270   -3.6760 hc        1 MOL      0.033845
     59 H23        -4.8260   -3.3700   -3.4470 hc        1 MOL      0.033845
     60 H24        -2.6560   -3.4520   -3.5830 hn        1 MOL      0.303219
     61 H25        -1.5250   -2.6370   -2.4500 hn        1 MOL      0.303219
     62 N7         -6.1910   -3.1120    0.3680 n         1 MOL     -0.041818
     63 C20        -6.1930   -4.0180    1.5850 c3        1 MOL     -0.379742
     64 C21        -4.8020   -4.6420    1.9460 c         1 MOL      0.566826
     65 O12        -4.8120   -5.6430    2.7050 o         1 MOL     -0.574188
     66 H26        -6.4050   -2.1300    0.5320 hn        1 MOL      0.153764
     67 H27        -6.8660   -4.8340    1.3490 h1        1 MOL      0.153202
     68 H28        -6.4120   -3.4110    2.4650 h1        1 MOL      0.153202
     69 N8         -3.6590   -4.0740    1.4840 n         1 MOL     -0.077334
     70 C22        -2.2870   -4.4630    1.9020 c3        1 MOL     -0.249585
     71 C23        -1.3450   -3.2240    2.0550 c         1 MOL      0.460044
     72 O13        -1.6060   -2.2140    1.3390 o         1 MOL     -0.428761
     73 C24        -1.5980   -5.3170    0.8540 c3        1 MOL      0.442494
     74 C25        -2.2290   -6.7060    0.7610 c3        1 MOL     -0.459714
     75 O14        -1.4960   -4.7960   -0.4990 oh        1 MOL     -0.562228
     76 H29        -3.6630   -3.2690    0.8670 hn        1 MOL      0.009744
     77 H30        -2.2410   -5.0470    2.8230 h1        1 MOL      0.105268
     78 H31        -0.5650   -5.5290    1.1130 h1        1 MOL     -0.000777
     79 H32        -1.1350   -3.9110   -0.5070 ho        1 MOL      0.315738
     80 H33        -3.2270   -6.7710    0.3320 hc        1 MOL      0.117293
     81 H34        -1.5830   -7.4030    0.2280 hc        1 MOL      0.117293
     82 H35        -2.4340   -7.0940    1.7600 hc        1 MOL      0.117293
     83 N9         -0.3090   -3.1870    2.9360 n         1 MOL     -0.470332
     84 C26         0.7900   -2.2670    2.6760 c3        1 MOL      0.009266
     85 C27         1.4930   -2.7140    1.3820 c         1 MOL      0.262891
     86 O15         1.8990   -3.8670    1.1240 o         1 MOL     -0.532993
     87 C28         1.7020   -2.1790    3.8750 c3        1 MOL      0.138739
     88 C29         0.8940   -1.3920    4.9150 c3        1 MOL      0.057814
     89 C30         3.0290   -1.4140    3.6570 c3        1 MOL     -0.183117
     90 C31         1.5170   -1.3630    6.3250 c3        1 MOL     -0.190831
     91 H36        -0.1880   -3.9510    3.5950 hn        1 MOL      0.315376
     92 H37         0.4260   -1.2630    2.4350 h1        1 MOL     -0.080201
     93 H38         1.8510   -3.1780    4.3030 hc        1 MOL     -0.000667
     94 H39        -0.0720   -1.8680    5.0500 hc        1 MOL      0.010948
     95 H40         0.7170   -0.3490    4.6570 hc        1 MOL      0.010948
     96 H41         3.7470   -1.4590    4.4740 hc        1 MOL      0.052999
     97 H42         3.5540   -1.8620    2.8140 hc        1 MOL      0.052999
     98 H43         2.7620   -0.3730    3.4810 hc        1 MOL      0.052999
     99 H44         1.5380   -2.3770    6.7360 hc        1 MOL      0.033188
    100 H45         2.4830   -0.8650    6.4210 hc        1 MOL      0.033188
    101 H46         0.8360   -0.7670    6.9210 hc        1 MOL      0.033188
    102 N10         1.7610   -1.7290    0.5620 n         1 MOL      0.000070
    103 C32         2.5550   -1.7830   -0.6690 c3        1 MOL      0.059527
    104 C33         3.9810   -1.4930   -0.3770 c         1 MOL      0.421527
    105 O16         4.2870   -0.8550    0.6640 o         1 MOL     -0.393409
    106 C34         1.8950   -1.0380   -1.7910 c3        1 MOL     -0.407030
    107 C35         0.6310   -1.7520   -2.1810 c         1 MOL      0.850237
    108 O17        -0.4230   -1.3640   -1.6230 o         1 MOL     -0.700308
    109 O18         0.6960   -2.6920   -3.0480 o         1 MOL     -0.700308
    110 H47         1.5100   -0.8330    0.9390 hn        1 MOL      0.175417
    111 H48         2.5670   -2.8050   -1.0470 h1        1 MOL      0.053796
    112 H49         2.5970   -0.9550   -2.6240 hc        1 MOL      0.100478
    113 H50         1.6700   -0.0020   -1.5250 hc        1 MOL      0.100478
    114 N11         4.8920   -1.6500   -1.3780 n         1 MOL     -0.499819
    115 C36         6.3890   -1.4750   -1.3100 c3        1 MOL      0.288908
    116 C37         6.7920   -0.0260   -1.1190 c         1 MOL      0.319283
    117 O19         7.5920    0.2130   -0.1930 o         1 MOL     -0.511450
    118 C38         6.9330   -2.1180   -2.5620 c3        1 MOL     -0.132062
    119 C39         8.4240   -2.2060   -2.4420 ca        1 MOL      0.161495
    120 C40         9.0940   -3.3800   -2.0200 ca        1 MOL     -0.222456
    121 C41         9.1560   -1.0780   -2.9200 ca        1 MOL     -0.222456
    122 C42        10.4430   -3.3180   -1.8060 ca        1 MOL     -0.060158
    123 C43        10.5580   -1.0940   -2.6700 ca        1 MOL     -0.060158
    124 C44        11.2210   -2.1820   -2.0960 ca        1 MOL     -0.176062
    125 H51         4.5290   -2.1780   -2.1570 hn        1 MOL      0.288769
    126 H52         6.7160   -2.0760   -0.4520 h1        1 MOL      0.043923
    127 H53         6.7920   -1.5520   -3.4850 hc        1 MOL      0.038061
    128 H54         6.4670   -3.0890   -2.6950 hc        1 MOL      0.038061
    129 H55         8.5680   -4.3070   -1.8660 ha        1 MOL      0.130160
    130 H56         8.6870   -0.2400   -3.4260 ha        1 MOL      0.130160
    131 H57        10.9570   -4.0840   -1.2560 ha        1 MOL      0.094841
    132 H58        11.1410   -0.2640   -3.0470 ha        1 MOL      0.094841
    133 H59        12.2720   -2.1680   -1.8540 ha        1 MOL      0.121820
    134 N12         6.2670    0.9980   -1.8790 n         1 MOL     -0.021780
    135 C45         6.4880    2.3850   -1.5340 c3        1 MOL      0.035205
    136 C46         5.8010    2.8240   -0.2530 c         1 MOL      0.404199
    137 O20         6.2320    3.7990    0.2770 o         1 MOL     -0.518898
    138 C47         5.9470    3.1360   -2.7680 c3        1 MOL     -0.314862
    139 C48         4.8400    2.2440   -3.3280 c3        1 MOL      0.028798
    140 C49         5.4550    0.8100   -3.1000 c3        1 MOL     -0.025947
    141 H60         7.5530    2.6020   -1.4690 h1        1 MOL      0.075286
    142 H61         5.4930    4.0770   -2.4450 hc        1 MOL      0.110137
    143 H62         6.8260    3.2440   -3.4100 hc        1 MOL      0.110137
    144 H63         3.9510    2.2320   -2.7100 hc        1 MOL      0.032576
    145 H64         4.6220    2.3600   -4.3940 hc        1 MOL      0.032576
    146 H65         4.6130    0.1320   -2.9850 h1        1 MOL      0.026076
    147 H66         5.9910    0.6720   -4.0370 h1        1 MOL      0.026076
    148 N13         4.7950    2.1200    0.2770 n         1 MOL     -0.137062
    149 C50         4.0130    2.4980    1.5120 c3        1 MOL     -0.229719
    150 C51         4.7270    2.0050    2.7540 c         1 MOL      0.509572
    151 O21         4.7670    2.7100    3.7380 o         1 MOL     -0.560205
    152 C52         2.5550    2.0510    1.4890 c3        1 MOL     -0.003020
    153 C53         1.6740    2.4590    0.2900 c3        1 MOL      0.137993
    154 C54         0.3080    1.7840    0.3450 c         1 MOL      0.129667
    155 O22         0.2740    0.6820    0.9210 o         1 MOL     -0.460199
    156 O23        -0.6640    2.2640   -0.2520 o         1 MOL     -0.460199
    157 H67         4.7250    1.1510    0.0210 hn        1 MOL      0.108957
    158 H68         4.0170    3.5840    1.5660 h1        1 MOL      0.140071
    159 H69         2.1110    2.3990    2.4290 hc        1 MOL      0.045610
    160 H70         2.5320    0.9710    1.5190 hc        1 MOL      0.045610
    161 H71         2.1320    2.1390   -0.6420 hc        1 MOL      0.012405
    162 H72         1.6930    3.5390    0.1410 hc        1 MOL      0.012405
    163 N14         5.3480    0.8380    2.6670 n         1 MOL     -0.080331
    164 C55         6.1820    0.2740    3.7710 c3        1 MOL     -0.210755
    165 H73         7.1040    0.8500    3.8590 h1        1 MOL      0.081230
    166 H74         5.6290    0.3280    4.7080 h1        1 MOL      0.081230
    167 H75         6.4240   -0.7660    3.5490 h1        1 MOL      0.081230
    168 H76         5.1270    0.2360    1.8790 hn        1 MOL      0.092346
    169 Ca1        -2.0830   -0.0370   -0.1160 Ca        1 MOL      1.620620
    170 O24        -4.5300   -0.5400    1.2940 oh        1 MOL     -0.756244
    171 H77        -4.2250   -0.3530    2.1790 ho        1 MOL      0.366196
    172 H78        -4.9620    0.2690    1.0120 ho        1 MOL      0.366196
    173 O25        -1.9310    0.3500    2.6630 oh        1 MOL     -0.756244
    174 H79        -1.0180    0.4540    2.3960 ho        1 MOL      0.366196
    175 H80        -1.9880    0.7750    3.5130 ho        1 MOL      0.366196
@<TRIPOS>BOND
     1    1    2 1   
     2    1    4 1   
     3    1    5 1   
     4    1    6 1   
     5    2    3 2   
     6    2    7 1   
     7    7    8 1   
     8    7   15 1   
     9    8    9 1   
    10    8   11 1   
    11    8   16 1   
    12    9   10 2   
    13    9   19 1   
    14   11   12 1   
    15   11   17 1   
    16   11   18 1   
    17   12   13 1   
    18   12   14 1   
    19   19   20 1   
    20   19   24 1   
    21   20   21 1   
    22   20   23 1   
    23   20   25 1   
    24   21   22 2   
    25   21   29 1   
    26   23   26 1   
    27   23   27 1   
    28   23   28 1   
    29   29   30 1   
    30   29   37 1   
    31   30   31 1   
    32   30   33 1   
    33   30   38 1   
    34   31   32 2   
    35   31   41 1   
    36   33   34 1   
    37   33   39 1   
    38   33   40 1   
    39   34   35 1   
    40   34   36 1   
    41   41   42 1   
    42   41   45 1   
    43   42   43 1   
    44   42   46 1   
    45   42   47 1   
    46   43   44 2   
    47   43   48 1   
    48   48   49 1   
    49   48   56 1   
    50   49   50 1   
    51   49   52 1   
    52   49   57 1   
    53   50   51 2   
    54   50   62 1   
    55   52   53 1   
    56   52   58 1   
    57   52   59 1   
    58   53   54 1   
    59   53   55 2   
    60   54   60 1   
    61   54   61 1   
    62   62   63 1   
    63   62   66 1   
    64   63   64 1   
    65   63   67 1   
    66   63   68 1   
    67   64   65 2   
    68   64   69 1   
    69   69   70 1   
    70   69   76 1   
    71   70   71 1   
    72   70   73 1   
    73   70   77 1   
    74   71   72 2   
    75   71   83 1   
    76   73   74 1   
    77   73   75 1   
    78   73   78 1   
    79   74   80 1   
    80   74   81 1   
    81   74   82 1   
    82   75   79 1   
    83   83   84 1   
    84   83   91 1   
    85   84   85 1   
    86   84   87 1   
    87   84   92 1   
    88   85   86 2   
    89   85  102 1   
    90   87   88 1   
    91   87   89 1   
    92   87   93 1   
    93   88   90 1   
    94   88   94 1   
    95   88   95 1   
    96   89   96 1   
    97   89   97 1   
    98   89   98 1   
    99   90   99 1   
   100   90  100 1   
   101   90  101 1   
   102  102  103 1   
   103  102  110 1   
   104  103  104 1   
   105  103  106 1   
   106  103  111 1   
   107  104  105 2   
   108  104  114 1   
   109  106  107 1   
   110  106  112 1   
   111  106  113 1   
   112  107  108 1   
   113  107  109 1   
   114  114  115 1   
   115  114  125 1   
   116  115  116 1   
   117  115  118 1   
   118  115  126 1   
   119  116  117 2   
   120  116  134 1   
   121  118  119 1   
   122  118  127 1   
   123  118  128 1   
   124  119  120 ar  
   125  119  121 ar  
   126  120  122 ar  
   127  120  129 1   
   128  121  123 ar  
   129  121  130 1   
   130  122  124 ar  
   131  122  131 1   
   132  123  124 ar  
   133  123  132 1   
   134  124  133 1   
   135  134  135 1   
   136  134  140 1   
   137  135  136 1   
   138  135  138 1   
   139  135  141 1   
   140  136  137 2   
   141  136  148 1   
   142  138  139 1   
   143  138  142 1   
   144  138  143 1   
   145  139  140 1   
   146  139  144 1   
   147  139  145 1   
   148  140  146 1   
   149  140  147 1   
   150  148  149 1   
   151  148  157 1   
   152  149  150 1   
   153  149  152 1   
   154  149  158 1   
   155  150  151 2   
   156  150  163 1   
   157  152  153 1   
   158  152  159 1   
   159  152  160 1   
   160  153  154 1   
   161  153  161 1   
   162  153  162 1   
   163  154  155 1   
   164  154  156 1   
   165  163  164 1   
   166  163  168 1   
   167  164  165 1   
   168  164  166 1   
   169  164  167 1   
   170  170  171 1   
   171  170  172 1   
   172  173  174 1   
   173  173  175 1   
@<TRIPOS>SUBSTRUCTURE
     1 MOL         1 TEMP              0 ****  ****    0 ROOT
