@<TRIPOS>MOLECULE
MOL
  172   171     1     0     0
SMALL
resp


@<TRIPOS>ATOM
      1 C1          0.5760    4.0060    5.4280 c3        1 MOL     -0.456631
      2 C2         -0.0950    3.9330    4.0100 c         1 MOL      0.739153
      3 O1          0.5400    4.2070    2.9960 o         1 MOL     -0.578887
      4 H1         -0.1520    3.7270    6.1890 hc        1 MOL      0.110255
      5 H2          1.4220    3.3190    5.4670 hc        1 MOL      0.110255
      6 H3          0.9250    5.0210    5.6150 hc        1 MOL      0.110255
      7 N1         -1.3790    3.6400    3.9450 n         1 MOL     -0.607118
      8 C3         -2.2000    3.3430    2.6980 c3        1 MOL      0.209700
      9 C4         -2.2080    4.5870    1.7610 c         1 MOL      0.586118
     10 O2         -2.5650    5.6400    2.2630 o         1 MOL     -0.612103
     11 C5         -3.6130    2.8260    3.0310 c3        1 MOL     -0.184735
     12 C6         -4.3190    2.3980    1.7810 c         1 MOL      0.692515
     13 O3         -3.6730    2.0890    0.7410 o         1 MOL     -0.670680
     14 O4         -5.5630    2.3600    1.8820 o         1 MOL     -0.670680
     15 H4         -1.8240    3.4860    4.8450 hn        1 MOL      0.298322
     16 H5         -1.6530    2.5670    2.1780 h1        1 MOL     -0.003491
     17 H6         -4.2870    3.4020    3.6570 hc        1 MOL      0.029135
     18 H7         -3.4370    1.8890    3.5570 hc        1 MOL      0.029135
     19 N2         -2.0270    4.4290    0.4780 n         1 MOL     -0.538425
     20 C7         -2.3300    5.5110   -0.5600 c3        1 MOL      0.377730
     21 C8         -3.0020    4.9160   -1.7700 c         1 MOL      0.485615
     22 O5         -2.8700    5.4000   -2.8910 o         1 MOL     -0.568692
     23 C9         -1.0280    6.3510   -0.8220 c3        1 MOL     -0.247248
     24 H8         -1.7030    3.5210    0.1840 hn        1 MOL      0.396201
     25 H9         -3.0530    6.2330   -0.1950 h1        1 MOL     -0.004355
     26 H10        -1.3540    7.0160   -1.6210 hc        1 MOL      0.048798
     27 H11        -0.7900    6.9740    0.0360 hc        1 MOL      0.048798
     28 H12        -0.2190    5.6860   -1.1190 hc        1 MOL      0.048798
     29 N3         -3.8180    3.8590   -1.6130 n         1 MOL     -0.347338
     30 C10        -4.7130    3.4060   -2.6890 c3        1 MOL      0.034362
     31 C11        -6.0610    2.7350   -2.2690 c         1 MOL      0.465623
     32 O6         -7.0300    2.9160   -2.9860 o         1 MOL     -0.552601
     33 C12        -3.9140    2.4300   -3.5960 c3        1 MOL     -0.182889
     34 C13        -3.2190    1.2580   -2.8140 c         1 MOL      0.686974
     35 O7         -3.9140    0.5740   -2.0270 o         1 MOL     -0.699795
     36 O8         -1.9630    1.0220   -2.8630 o         1 MOL     -0.699795
     37 H13        -3.8130    3.4940   -0.6810 hn        1 MOL      0.112912
     38 H14        -5.0050    4.3360   -3.1770 h1        1 MOL      0.083985
     39 H15        -3.1560    3.0210   -4.1010 hc        1 MOL      0.056213
     40 H16        -4.5310    2.0210   -4.3960 hc        1 MOL      0.056213
     41 N4         -6.1770    2.0920   -1.0400 n         1 MOL     -0.272812
     42 C14        -7.4230    1.4420   -0.7070 c3        1 MOL     -0.250134
     43 C15        -7.4070   -0.1280   -1.1030 c         1 MOL      0.488118
     44 O9         -8.3810   -0.7860   -0.8100 o         1 MOL     -0.595129
     45 H17        -5.3870    1.9320   -0.4230 hn        1 MOL      0.283594
     46 H18        -8.2300    1.8880   -1.2750 h1        1 MOL      0.131862
     47 H19        -7.6580    1.5340    0.3470 h1        1 MOL      0.131862
     48 N5         -6.3880   -0.6550   -1.7670 n         1 MOL     -0.244269
     49 C16        -6.3410   -2.0080   -2.1370 c3        1 MOL     -0.009818
     50 C17        -6.2290   -2.9830   -0.9490 c         1 MOL      0.443740
     51 O10        -6.3800   -4.1870   -1.1190 o         1 MOL     -0.553851
     52 C18        -5.1930   -2.2390   -3.1550 c3        1 MOL     -0.142783
     53 C19        -3.7970   -2.3760   -2.5090 c         1 MOL      0.579522
     54 N6         -2.7080   -2.5970   -3.2350 n         1 MOL     -0.636985
     55 O11        -3.5660   -2.2480   -1.3660 o         1 MOL     -0.541168
     56 H20        -5.5300   -0.1410   -1.9220 hn        1 MOL      0.215353
     57 H21        -7.2780   -2.2590   -2.6300 h1        1 MOL      0.097304
     58 H22        -5.1700   -1.4030   -3.8520 hc        1 MOL      0.046425
     59 H23        -5.3880   -3.1250   -3.7660 hc        1 MOL      0.046425
     60 H24        -2.7570   -2.6770   -4.2430 hn        1 MOL      0.298338
     61 H25        -1.7630   -2.7460   -2.9030 hn        1 MOL      0.298338
     62 N7         -6.1040   -2.5170    0.2940 n         1 MOL     -0.111162
     63 C20        -6.3030   -3.4130    1.4740 c3        1 MOL     -0.365573
     64 C21        -5.0180   -4.1180    1.9760 c         1 MOL      0.640336
     65 O12        -5.0340   -4.7520    3.0040 o         1 MOL     -0.575951
     66 H26        -6.0070   -1.5240    0.4520 hn        1 MOL      0.214802
     67 H27        -7.0620   -4.1530    1.2440 h1        1 MOL      0.135115
     68 H28        -6.6210   -2.8280    2.3390 h1        1 MOL      0.135115
     69 N8         -3.9380   -3.8660    1.1990 n         1 MOL     -0.387761
     70 C22        -2.6090   -4.4700    1.3790 c3        1 MOL     -0.160445
     71 C23        -1.4980   -3.3300    1.5020 c         1 MOL      0.634102
     72 O13        -1.6750   -2.4000    0.7870 o         1 MOL     -0.410666
     73 C24        -2.0750   -5.4710    0.3110 c3        1 MOL      0.413121
     74 C25        -3.0930   -6.6100    0.3470 c3        1 MOL     -0.342221
     75 O14        -2.1060   -4.8820   -0.9920 oh        1 MOL     -0.593538
     76 H29        -4.0200   -3.3660    0.3310 hn        1 MOL      0.364150
     77 H30        -2.5950   -5.0140    2.3160 h1        1 MOL      0.068906
     78 H31        -1.1010   -5.9080    0.5450 h1        1 MOL     -0.004095
     79 H32        -1.5260   -4.1230   -0.9780 ho        1 MOL      0.367759
     80 H33        -3.1000   -7.1240    1.3030 hc        1 MOL      0.084829
     81 H34        -4.1100   -6.3100    0.1060 hc        1 MOL      0.084829
     82 H35        -2.7680   -7.3570   -0.3800 hc        1 MOL      0.084829
     83 N9         -0.4360   -3.4570    2.3330 n         1 MOL     -0.806123
     84 C26         0.7830   -2.6590    2.2310 c3        1 MOL      0.111873
     85 C27         1.5920   -3.0360    0.9390 c         1 MOL      0.408267
     86 O15         1.9870   -4.2120    0.7520 o         1 MOL     -0.584096
     87 C28         1.6920   -2.7620    3.5170 c3        1 MOL      0.388872
     88 C29         0.8170   -2.8040    4.7850 c3        1 MOL     -0.023002
     89 C30         2.8660   -1.7150    3.6160 c3        1 MOL     -0.237737
     90 C31         1.6090   -2.8250    6.0870 c3        1 MOL     -0.188281
     91 H36        -0.3110   -4.3400    2.8120 hn        1 MOL      0.340082
     92 H37         0.4910   -1.6050    2.1980 h1        1 MOL      0.027379
     93 H38         2.2190   -3.7080    3.3760 hc        1 MOL     -0.096483
     94 H39         0.2500   -3.7340    4.7660 hc        1 MOL      0.016372
     95 H40         0.2150   -1.9080    4.8590 hc        1 MOL      0.016372
     96 H41         2.4250   -0.7310    3.7360 hc        1 MOL      0.041908
     97 H42         3.4920   -1.9440    4.4770 hc        1 MOL      0.041908
     98 H43         3.4830   -1.9200    2.7430 hc        1 MOL      0.041908
     99 H44         0.9360   -3.1360    6.8780 hc        1 MOL      0.035882
    100 H45         2.3820   -3.5860    6.0500 hc        1 MOL      0.035882
    101 H46         2.0780   -1.8490    6.2200 hc        1 MOL      0.035882
    102 N10         1.7540   -2.0530    0.0980 n         1 MOL     -0.037803
    103 C32         2.6000   -2.0630   -1.0990 c3        1 MOL      0.056709
    104 C33         4.0280   -1.4990   -0.7750 c         1 MOL      0.414614
    105 O16         4.1470   -0.7720    0.1990 o         1 MOL     -0.395035
    106 C34         1.8520   -1.4220   -2.2860 c3        1 MOL     -0.206367
    107 C35         0.4480   -1.9760   -2.4280 c         1 MOL      0.673185
    108 O17        -0.4270   -1.7970   -1.5130 o         1 MOL     -0.655324
    109 O18         0.1760   -2.5840   -3.4560 o         1 MOL     -0.655324
    110 H47         1.4080   -1.1790    0.4490 hn        1 MOL      0.034174
    111 H48         2.8210   -3.1030   -1.3300 h1        1 MOL      0.036970
    112 H49         2.4230   -1.4800   -3.2070 hc        1 MOL      0.058439
    113 H50         1.7330   -0.3400   -2.2430 hc        1 MOL      0.058439
    114 N11         5.0260   -1.7160   -1.5870 n         1 MOL     -0.557840
    115 C36         6.4260   -1.3840   -1.3040 c3        1 MOL      0.400744
    116 C37         6.7010    0.0910   -0.9960 c         1 MOL      0.248383
    117 O19         7.2150    0.3100    0.0940 o         1 MOL     -0.440541
    118 C38         7.2430   -1.9210   -2.5000 c3        1 MOL     -0.344058
    119 C39         8.6920   -1.7130   -2.2060 ca        1 MOL      0.142716
    120 C40         9.3500   -2.7450   -1.3940 ca        1 MOL     -0.215802
    121 C41         9.4910   -0.6280   -2.7020 ca        1 MOL     -0.215802
    122 C42        10.7190   -2.6540   -1.1520 ca        1 MOL     -0.055937
    123 C43        10.8570   -0.5800   -2.3640 ca        1 MOL     -0.055937
    124 C44        11.4310   -1.5920   -1.6520 ca        1 MOL     -0.138281
    125 H51         4.8620   -2.3140   -2.3920 hn        1 MOL      0.303393
    126 H52         6.7610   -1.9670   -0.4510 h1        1 MOL      0.048242
    127 H53         6.8840   -1.4740   -3.4290 hc        1 MOL      0.100002
    128 H54         7.0580   -2.9960   -2.5410 hc        1 MOL      0.100002
    129 H55         8.8090   -3.6260   -1.0920 ha        1 MOL      0.134635
    130 H56         9.0100    0.1800   -3.2340 ha        1 MOL      0.134635
    131 H57        11.1370   -3.4280   -0.5260 ha        1 MOL      0.100273
    132 H58        11.4140    0.2400   -2.7950 ha        1 MOL      0.100273
    133 H59        12.5030   -1.5200   -1.5260 ha        1 MOL      0.092026
    134 N12         6.2690    1.0790   -1.8170 n         1 MOL     -0.059254
    135 C45         6.3360    2.4480   -1.3930 c3        1 MOL      0.066602
    136 C46         5.8380    2.6890   -0.0570 c         1 MOL      0.244980
    137 O20         6.3620    3.5470    0.6380 o         1 MOL     -0.502752
    138 C47         5.6210    3.2790   -2.4300 c3        1 MOL      0.003231
    139 C48         5.6130    2.3610   -3.6560 c3        1 MOL      0.006141
    140 C49         5.5030    0.9640   -3.0350 c3        1 MOL     -0.158258
    141 H60         7.3620    2.8050   -1.4580 h1        1 MOL      0.061712
    142 H61         4.5840    3.4640   -2.1800 hc        1 MOL      0.020607
    143 H62         6.2700    4.1230   -2.6870 hc        1 MOL      0.020607
    144 H63         4.7900    2.6480   -4.3030 hc        1 MOL      0.024121
    145 H64         6.5310    2.5170   -4.2130 hc        1 MOL      0.024121
    146 H65         4.4900    0.7660   -2.6910 h1        1 MOL      0.072609
    147 H66         5.8060    0.1860   -3.7380 h1        1 MOL      0.072609
    148 N13         4.7090    2.0900    0.3000 n         1 MOL     -0.115319
    149 C50         4.0330    2.2430    1.6170 c3        1 MOL     -0.147340
    150 C51         4.7170    1.5510    2.7390 c         1 MOL      0.477540
    151 O21         4.6250    2.0320    3.8630 o         1 MOL     -0.570394
    152 C52         2.5820    1.7380    1.4520 c3        1 MOL     -0.123225
    153 C53         1.7290    2.1800    0.2500 c3        1 MOL     -0.092331
    154 C54         0.3120    1.5780    0.3190 c         1 MOL      0.690216
    155 O22        -0.5960    2.1610   -0.2550 o         1 MOL     -0.751110
    156 O23         0.1210    0.4180    0.7750 o         1 MOL     -0.751110
    157 H67         4.2930    1.4900   -0.3930 hn        1 MOL      0.229950
    158 H68         4.0760    3.3120    1.8280 h1        1 MOL      0.138775
    159 H69         2.0730    1.9020    2.4030 hc        1 MOL      0.089975
    160 H70         2.5760    0.6510    1.4030 hc        1 MOL      0.089975
    161 H71         2.2350    1.7990   -0.6350 hc        1 MOL      0.053342
    162 H72         1.6580    3.2630    0.1970 hc        1 MOL      0.053342
    163 N14         5.5280    0.5210    2.3990 n         1 MOL      0.016097
    164 C55         6.5070   -0.1820    3.2850 c3        1 MOL     -0.167591
    165 H73         5.9960   -0.5390    4.1790 h1        1 MOL      0.062503
    166 H74         6.9370   -1.0290    2.7520 h1        1 MOL      0.062503
    167 H75         7.3000    0.5090    3.5710 h1        1 MOL      0.062503
    168 H76         5.5700    0.2900    1.4200 hn        1 MOL      0.025743
    169 Ca1        -2.1700   -0.0900   -0.3480 Ca        1 MOL      1.732619
    170 O24        -3.9320   -0.6290    1.3810 oh        1 MOL     -1.045393
    171 H77        -3.5040   -0.5650    2.2270 ho        1 MOL      0.464485
    172 H78        -4.8530   -0.4330    1.5610 ho        1 MOL      0.464485
@<TRIPOS>BOND
     1    1    2 1   
     2    1    4 1   
     3    1    5 1   
     4    1    6 1   
     5    2    3 2   
     6    2    7 1   
     7    7    8 1   
     8    7   15 1   
     9    8    9 1   
    10    8   11 1   
    11    8   16 1   
    12    9   10 2   
    13    9   19 1   
    14   11   12 1   
    15   11   17 1   
    16   11   18 1   
    17   12   13 1   
    18   12   14 1   
    19   19   20 1   
    20   19   24 1   
    21   20   21 1   
    22   20   23 1   
    23   20   25 1   
    24   21   22 2   
    25   21   29 1   
    26   23   26 1   
    27   23   27 1   
    28   23   28 1   
    29   29   30 1   
    30   29   37 1   
    31   30   31 1   
    32   30   33 1   
    33   30   38 1   
    34   31   32 2   
    35   31   41 1   
    36   33   34 1   
    37   33   39 1   
    38   33   40 1   
    39   34   35 1   
    40   34   36 1   
    41   41   42 1   
    42   41   45 1   
    43   42   43 1   
    44   42   46 1   
    45   42   47 1   
    46   43   44 2   
    47   43   48 1   
    48   48   49 1   
    49   48   56 1   
    50   49   50 1   
    51   49   52 1   
    52   49   57 1   
    53   50   51 2   
    54   50   62 1   
    55   52   53 1   
    56   52   58 1   
    57   52   59 1   
    58   53   54 1   
    59   53   55 2   
    60   54   60 1   
    61   54   61 1   
    62   62   63 1   
    63   62   66 1   
    64   63   64 1   
    65   63   67 1   
    66   63   68 1   
    67   64   65 2   
    68   64   69 1   
    69   69   70 1   
    70   69   76 1   
    71   70   71 1   
    72   70   73 1   
    73   70   77 1   
    74   71   72 2   
    75   71   83 1   
    76   73   74 1   
    77   73   75 1   
    78   73   78 1   
    79   74   80 1   
    80   74   81 1   
    81   74   82 1   
    82   75   79 1   
    83   83   84 1   
    84   83   91 1   
    85   84   85 1   
    86   84   87 1   
    87   84   92 1   
    88   85   86 2   
    89   85  102 1   
    90   87   88 1   
    91   87   89 1   
    92   87   93 1   
    93   88   90 1   
    94   88   94 1   
    95   88   95 1   
    96   89   96 1   
    97   89   97 1   
    98   89   98 1   
    99   90   99 1   
   100   90  100 1   
   101   90  101 1   
   102  102  103 1   
   103  102  110 1   
   104  103  104 1   
   105  103  106 1   
   106  103  111 1   
   107  104  105 2   
   108  104  114 1   
   109  106  107 1   
   110  106  112 1   
   111  106  113 1   
   112  107  108 1   
   113  107  109 1   
   114  114  115 1   
   115  114  125 1   
   116  115  116 1   
   117  115  118 1   
   118  115  126 1   
   119  116  117 2   
   120  116  134 1   
   121  118  119 1   
   122  118  127 1   
   123  118  128 1   
   124  119  120 ar  
   125  119  121 ar  
   126  120  122 ar  
   127  120  129 1   
   128  121  123 ar  
   129  121  130 1   
   130  122  124 ar  
   131  122  131 1   
   132  123  124 ar  
   133  123  132 1   
   134  124  133 1   
   135  134  135 1   
   136  134  140 1   
   137  135  136 1   
   138  135  138 1   
   139  135  141 1   
   140  136  137 2   
   141  136  148 1   
   142  138  139 1   
   143  138  142 1   
   144  138  143 1   
   145  139  140 1   
   146  139  144 1   
   147  139  145 1   
   148  140  146 1   
   149  140  147 1   
   150  148  149 1   
   151  148  157 1   
   152  149  150 1   
   153  149  152 1   
   154  149  158 1   
   155  150  151 2   
   156  150  163 1   
   157  152  153 1   
   158  152  159 1   
   159  152  160 1   
   160  153  154 1   
   161  153  161 1   
   162  153  162 1   
   163  154  155 1   
   164  154  156 1   
   165  163  164 1   
   166  163  168 1   
   167  164  165 1   
   168  164  166 1   
   169  164  167 1   
   170  170  171 1   
   171  170  172 1   
@<TRIPOS>SUBSTRUCTURE
     1 MOL         1 TEMP              0 ****  ****    0 ROOT
