@<TRIPOS>MOLECULE
MOL
  189   185     1     0     0
SMALL
resp


@<TRIPOS>ATOM
      1 C1          0.6220   -2.1620    6.4260 c3        1 MOL     -0.300625
      2 C2          0.8720   -1.9760    4.9440 c         1 MOL      0.797928
      3 O1          0.1100   -2.3970    4.1540 o         1 MOL     -0.606871
      4 H1          1.5750   -2.2590    6.9460 hc        1 MOL      0.074023
      5 H2          0.0830   -1.2970    6.8150 hc        1 MOL      0.074023
      6 H3          0.0280   -3.0630    6.5850 hc        1 MOL      0.074023
      7 N1          2.0830   -1.4480    4.5650 n         1 MOL     -0.717271
      8 C3          2.4340   -1.4090    3.1380 c3        1 MOL      0.314309
      9 C4          2.9040   -2.7670    2.6060 c         1 MOL      0.510734
     10 O2          3.8170   -3.4070    3.1700 o         1 MOL     -0.573784
     11 C5          3.5410   -0.3230    2.9040 c3        1 MOL     -0.429037
     12 C6          4.0280   -0.2760    1.4120 c         1 MOL      0.633871
     13 O3          5.1190    0.3080    1.2360 o         1 MOL     -0.561783
     14 O4          3.3540   -0.7840    0.4480 o         1 MOL     -0.561783
     15 H4          2.7000   -0.9350    5.1840 hn        1 MOL      0.346862
     16 H5          1.6250   -1.0500    2.4960 h1        1 MOL     -0.023242
     17 H6          4.3270   -0.6790    3.5740 hc        1 MOL      0.109566
     18 H7          3.2100    0.6770    3.1560 hc        1 MOL      0.109566
     19 N2          2.1480   -3.3080    1.6870 n         1 MOL     -0.064504
     20 C7          2.2960   -4.7290    1.3670 c3        1 MOL     -0.105190
     21 C8          3.4540   -4.9550    0.2880 c         1 MOL      0.427046
     22 O5          3.9080   -6.0560   -0.0130 o         1 MOL     -0.509673
     23 C9          0.9480   -5.2780    0.8240 c3        1 MOL     -0.191640
     24 C10         0.6630   -4.8330   -0.5600 c3        1 MOL      0.103934
     25 C11        -0.8640   -4.6540   -0.8520 c3        1 MOL     -0.276523
     26 C12        -0.9420   -3.8480   -2.1500 c3        1 MOL      0.263113
     27 N3         -0.2090   -4.4630   -3.2870 n4        1 MOL     -0.513378
     28 H8          1.3300   -2.7810    1.4160 hn        1 MOL      0.161088
     29 H9          2.4610   -5.2070    2.3220 h1        1 MOL      0.119589
     30 H10         0.2300   -4.9390    1.5690 hc        1 MOL      0.081362
     31 H11         1.0600   -6.3610    0.7620 hc        1 MOL      0.081362
     32 H12         1.0080   -5.5610   -1.2930 hc        1 MOL      0.040865
     33 H13         1.1610   -3.8830   -0.7670 hc        1 MOL      0.040865
     34 H14        -1.2800   -4.0890   -0.0190 hc        1 MOL      0.075001
     35 H15        -1.3990   -5.6040   -0.9030 hc        1 MOL      0.075001
     36 H16        -0.4270   -2.9160   -1.9430 hx        1 MOL     -0.025323
     37 H17        -1.9710   -3.6710   -2.4730 hx        1 MOL     -0.025323
     38 H18        -0.6010   -4.2370   -4.1840 hn        1 MOL      0.344564
     39 H19         0.7330   -4.0910   -3.2290 hn        1 MOL      0.344564
     40 H20        -0.1820   -5.4440   -3.0920 hn        1 MOL      0.344564
     41 N4          3.8610   -3.7710   -0.1640 n         1 MOL      0.043667
     42 C13         4.9090   -3.7000   -1.1900 c3        1 MOL     -0.174941
     43 C14         6.2910   -3.1920   -0.7770 c         1 MOL      0.567321
     44 O6          7.3580   -3.6540   -1.2210 o         1 MOL     -0.530603
     45 C15         4.4220   -2.7630   -2.3400 c3        1 MOL      0.117037
     46 C16         3.0580   -3.1260   -2.8040 c         1 MOL      0.656225
     47 O7          2.8880   -4.2220   -3.3660 o         1 MOL     -0.699462
     48 O8          2.0600   -2.4370   -2.6030 o         1 MOL     -0.699462
     49 H21         3.3920   -2.9380    0.1620 hn        1 MOL     -0.293855
     50 H22         5.0720   -4.6930   -1.6180 h1        1 MOL      0.105659
     51 H23         5.0460   -2.8240   -3.2310 hc        1 MOL     -0.012959
     52 H24         4.4530   -1.7280   -2.0070 hc        1 MOL     -0.012959
     53 N5          6.3280   -2.2620    0.1610 n         1 MOL     -0.345937
     54 C17         7.5960   -1.6310    0.4880 c3        1 MOL     -0.089527
     55 C18         7.9430   -0.6420   -0.6010 c         1 MOL      0.419553
     56 O9          9.1160   -0.5560   -1.0570 o         1 MOL     -0.548209
     57 H25         5.5030   -1.8410    0.5540 hn        1 MOL      0.299006
     58 H26         8.4130   -2.3450    0.5870 h1        1 MOL      0.097858
     59 H27         7.5850   -1.0650    1.4220 h1        1 MOL      0.097858
     60 N6          6.9450    0.0850   -1.1080 n         1 MOL     -0.147407
     61 C19         7.0330    1.1810   -2.1020 c3        1 MOL      0.090012
     62 C20         7.1360    2.5850   -1.4190 c         1 MOL      0.364810
     63 O10         7.6190    3.5350   -2.0370 o         1 MOL     -0.518287
     64 C21         5.9020    1.1170   -3.1380 c3        1 MOL     -0.312748
     65 C22         4.4660    1.1250   -2.5910 c         1 MOL      0.943209
     66 O11         4.2030    1.7190   -1.5170 o         1 MOL     -0.851522
     67 O12         3.5020    0.6530   -3.2350 o         1 MOL     -0.851522
     68 H28         6.0920   -0.1010   -0.6150 hn        1 MOL      0.059438
     69 H29         7.8890    1.1910   -2.7760 h1        1 MOL      0.082082
     70 H30         5.9640    0.1650   -3.6500 hc        1 MOL      0.086340
     71 H31         5.9700    1.9740   -3.8090 hc        1 MOL      0.086340
     72 N7          6.5820    2.6880   -0.1930 n         1 MOL     -0.163271
     73 C23         6.4340    3.8480    0.6560 c3        1 MOL     -0.075112
     74 C24         5.1450    4.5940    0.5890 c         1 MOL      0.534738
     75 O13         5.0220    5.7620    0.9300 o         1 MOL     -0.556387
     76 H32         6.0260    1.9030    0.1200 hn        1 MOL      0.144361
     77 H33         7.2900    4.4630    0.3950 h1        1 MOL      0.072653
     78 H34         6.6550    3.4900    1.6650 h1        1 MOL      0.072653
     79 N8          4.0210    3.9690    0.0900 n         1 MOL     -0.284205
     80 C25         2.5750    4.4670    0.1930 c3        1 MOL     -0.180404
     81 C26         1.4660    3.4590    0.4700 c         1 MOL      0.715446
     82 O14         1.6590    2.2610    0.0960 o         1 MOL     -0.677582
     83 C27         2.2530    5.3740   -0.9570 c3        1 MOL      0.353703
     84 C28         3.1480    6.5900   -1.0870 c3        1 MOL     -0.508778
     85 O15         2.2700    4.6450   -2.1180 oh        1 MOL     -0.599466
     86 H35         4.0860    3.0050   -0.1890 hn        1 MOL      0.308598
     87 H36         2.5230    5.1340    1.0510 h1        1 MOL      0.068709
     88 H37         1.2310    5.7170   -0.8310 h1        1 MOL      0.034069
     89 H38         3.1770    4.6460   -2.4320 ho        1 MOL      0.406216
     90 H39         3.1110    7.2690   -0.2330 hc        1 MOL      0.144059
     91 H40         4.1890    6.3140   -1.2420 hc        1 MOL      0.144059
     92 H41         2.7950    7.1310   -1.9620 hc        1 MOL      0.144059
     93 N9          0.3490    3.9050    1.0630 n         1 MOL     -0.565442
     94 C29        -0.7640    3.0000    1.4700 c3        1 MOL      0.080730
     95 C30        -2.0270    3.3540    0.6000 c         1 MOL      0.396333
     96 O16        -2.6070    4.4590    0.7250 o         1 MOL     -0.528701
     97 C31        -0.9200    3.1330    3.0080 c3        1 MOL     -0.030011
     98 C32         0.2470    2.3840    3.7070 c3        1 MOL      0.182043
     99 C33        -2.2840    2.6070    3.5440 c3        1 MOL     -0.097381
    100 C34         0.3990    2.5440    5.2140 c3        1 MOL     -0.486847
    101 H42         0.3450    4.8910    1.2770 hn        1 MOL      0.322428
    102 H43        -0.4780    1.9580    1.3510 h1        1 MOL      0.082208
    103 H44        -0.7800    4.1670    3.3010 hc        1 MOL      0.037218
    104 H45         1.1630    2.6860    3.2100 hc        1 MOL      0.004982
    105 H46         0.1670    1.3650    3.3220 hc        1 MOL      0.004982
    106 H47        -3.1420    2.8360    2.9150 hc        1 MOL      0.016294
    107 H48        -2.1250    1.5330    3.6370 hc        1 MOL      0.016294
    108 H49        -2.4390    2.9840    4.5560 hc        1 MOL      0.016294
    109 H50        -0.3600    1.9680    5.7310 hc        1 MOL      0.125199
    110 H51         1.4190    2.2640    5.4650 hc        1 MOL      0.125199
    111 H52         0.2770    3.6020    5.4470 hc        1 MOL      0.125199
    112 N10        -2.3950    2.5240   -0.3680 n         1 MOL     -0.071805
    113 C35        -3.5600    2.5810   -1.2830 c3        1 MOL     -0.248579
    114 C36        -4.9000    2.3220   -0.5990 c         1 MOL      0.484829
    115 O17        -4.8890    1.9550    0.6200 o         1 MOL     -0.340410
    116 C37        -3.4130    1.5850   -2.4680 c3        1 MOL      0.291832
    117 C38        -2.1970    1.9000   -3.3670 c3        1 MOL     -0.179259
    118 O18        -3.1960    0.2910   -2.0510 oh        1 MOL     -0.654556
    119 H53        -1.8420    1.6880   -0.4660 hn        1 MOL      0.178993
    120 H54        -3.5900    3.6020   -1.6590 h1        1 MOL      0.116073
    121 H55        -4.3650    1.4670   -3.0020 h1        1 MOL      0.026315
    122 H56        -2.3050    0.2440   -1.7060 ho        1 MOL      0.415281
    123 H57        -1.4090    2.5380   -2.9530 hc        1 MOL      0.043852
    124 H58        -1.7380    0.9850   -3.7420 hc        1 MOL      0.043852
    125 H59        -2.6710    2.4610   -4.1840 hc        1 MOL      0.043852
    126 N11        -6.0240    2.6480   -1.2740 n         1 MOL     -0.433208
    127 C39        -7.3970    2.4130   -0.7240 c3        1 MOL     -0.091836
    128 C40        -7.4490    1.0570   -0.0110 c         1 MOL      0.218566
    129 O19        -7.9590    0.9660    1.1140 o         1 MOL     -0.470005
    130 C41        -8.4660    2.5380   -1.8650 c3        1 MOL      0.260117
    131 C42        -8.7340    4.0180   -2.1940 c3        1 MOL     -0.412339
    132 O20        -7.9850    1.8180   -2.9940 oh        1 MOL     -0.624328
    133 H60        -6.0560    2.6530   -2.2840 hn        1 MOL      0.294211
    134 H61        -7.5280    3.1970    0.0120 h1        1 MOL      0.178435
    135 H62        -9.3940    1.9780   -1.6840 h1        1 MOL      0.048796
    136 H63        -8.5950    1.1560   -3.3240 ho        1 MOL      0.406854
    137 H64        -9.1600    4.5910   -1.3770 hc        1 MOL      0.133806
    138 H65        -7.7700    4.4890   -2.4160 hc        1 MOL      0.133806
    139 H66        -9.3050    4.2050   -3.1060 hc        1 MOL      0.133806
    140 N12        -6.8530   -0.0230   -0.5530 n         1 MOL     -0.070658
    141 C43        -6.8630   -1.3890    0.0010 c3        1 MOL     -0.037608
    142 C44        -5.9040   -1.7580    1.1090 c         1 MOL      0.351448
    143 O21        -6.2630   -2.6190    1.9280 o         1 MOL     -0.506765
    144 C45        -6.8150   -2.4120   -1.1380 c3        1 MOL     -0.183271
    145 C46        -7.8400   -2.5060   -2.1510 c3        1 MOL      0.222949
    146 C47        -9.2560   -2.5700   -1.5250 c3        1 MOL     -0.144415
    147 C48       -10.1880   -3.5180   -2.3560 c3        1 MOL      0.034087
    148 N13       -10.2820   -3.0570   -3.7580 n4        1 MOL     -0.425683
    149 H67        -6.4910    0.1760   -1.4710 hn        1 MOL      0.225245
    150 H68        -7.8450   -1.5200    0.4590 h1        1 MOL      0.085873
    151 H69        -6.7820   -3.3710   -0.6310 hc        1 MOL      0.075776
    152 H70        -5.8060   -2.4150   -1.5410 hc        1 MOL      0.075776
    153 H71        -7.6610   -3.3500   -2.8190 hc        1 MOL     -0.067924
    154 H72        -7.7170   -1.5740   -2.7020 hc        1 MOL     -0.067924
    155 H73        -9.6360   -1.5500   -1.5130 hc        1 MOL      0.081293
    156 H74        -9.1790   -2.9930   -0.5270 hc        1 MOL      0.081293
    157 H75       -11.1270   -3.6850   -1.8280 hx        1 MOL      0.106940
    158 H76        -9.7270   -4.5140   -2.4550 hx        1 MOL      0.106940
    159 H77        -9.4520   -3.3610   -4.2460 hn        1 MOL      0.335575
    160 H78       -11.0250   -3.5780   -4.1910 hn        1 MOL      0.335575
    161 H79       -10.5030   -2.0750   -3.8740 hn        1 MOL      0.335575
    162 N14        -4.7750   -1.0830    1.2370 n         1 MOL     -0.165557
    163 C49        -3.8650   -1.1910    2.4310 c3        1 MOL     -0.039033
    164 C50        -4.4180   -0.4220    3.6540 c         1 MOL      0.489112
    165 O22        -4.3070   -0.9320    4.7400 o         1 MOL     -0.535586
    166 C51        -2.5140   -0.6410    1.9920 c3        1 MOL      0.110313
    167 C52        -1.9180   -1.5040    0.8730 c3        1 MOL     -0.284288
    168 C53        -0.6990   -0.8410    0.2140 c         1 MOL      0.909623
    169 O23        -0.7930    0.2060   -0.5180 o         1 MOL     -0.820617
    170 O24         0.4380   -1.4200    0.3180 o         1 MOL     -0.820617
    171 H80        -4.6260   -0.3870    0.5230 hn        1 MOL      0.087126
    172 H81        -3.7690   -2.2450    2.6740 h1        1 MOL      0.104966
    173 H82        -1.9790   -0.6930    2.9430 hc        1 MOL      0.023452
    174 H83        -2.5720    0.3940    1.6650 hc        1 MOL      0.023452
    175 H84        -2.5940   -1.7300    0.0550 hc        1 MOL      0.078627
    176 H85        -1.5300   -2.4220    1.3160 hc        1 MOL      0.078627
    177 N15        -5.1350    0.6840    3.4150 n         1 MOL     -0.095791
    178 C54        -5.9790    1.4180    4.3230 c3        1 MOL     -0.264747
    179 H86        -6.3070    0.7580    5.1260 h1        1 MOL      0.102231
    180 H87        -5.4200    2.2520    4.7460 h1        1 MOL      0.102231
    181 H88        -6.8480    1.7970    3.7860 h1        1 MOL      0.102231
    182 H89        -5.1160    1.0670    2.4790 hn        1 MOL      0.166770
    183 Ca1         1.8050    0.2210   -1.3580 Ca        1 MOL      1.789426
    184 O25         0.9820    2.3430   -3.0510 oh        1 MOL     -0.780887
    185 H90         1.0850    2.4050   -3.9970 ho        1 MOL      0.382188
    186 H91         1.3930    3.1470   -2.7060 ho        1 MOL      0.382188
    187 O26         0.2840   -0.7090   -3.3550 oh        1 MOL     -0.780887
    188 H92        -0.4750   -1.0140   -3.8590 ho        1 MOL      0.382188
    189 H93         0.8950   -1.4390   -3.3830 ho        1 MOL      0.382188
@<TRIPOS>BOND
     1    1    2 1   
     2    1    4 1   
     3    1    5 1   
     4    1    6 1   
     5    2    3 2   
     6    2    7 1   
     7    7    8 1   
     8    7   15 1   
     9    8    9 1   
    10    8   11 1   
    11    8   16 1   
    12    9   10 2   
    13    9   19 1   
    14   11   12 1   
    15   11   17 1   
    16   11   18 1   
    17   12   13 1   
    18   12   14 1   
    19   19   20 1   
    20   19   28 1   
    21   20   21 1   
    22   20   23 1   
    23   20   29 1   
    24   21   22 2   
    25   21   41 1   
    26   23   24 1   
    27   23   30 1   
    28   23   31 1   
    29   24   25 1   
    30   24   32 1   
    31   24   33 1   
    32   25   26 1   
    33   25   34 1   
    34   25   35 1   
    35   26   27 1   
    36   26   36 1   
    37   26   37 1   
    38   27   38 1   
    39   27   39 1   
    40   27   40 1   
    41   41   42 1   
    42   41   49 1   
    43   42   43 1   
    44   42   45 1   
    45   42   50 1   
    46   43   44 2   
    47   43   53 1   
    48   45   46 1   
    49   45   51 1   
    50   45   52 1   
    51   46   47 1   
    52   46   48 1   
    53   53   54 1   
    54   53   57 1   
    55   54   55 1   
    56   54   58 1   
    57   54   59 1   
    58   55   56 2   
    59   55   60 1   
    60   60   61 1   
    61   60   68 1   
    62   61   62 1   
    63   61   64 1   
    64   61   69 1   
    65   62   63 2   
    66   62   72 1   
    67   64   65 1   
    68   64   70 1   
    69   64   71 1   
    70   65   66 1   
    71   65   67 1   
    72   72   73 1   
    73   72   76 1   
    74   73   74 1   
    75   73   77 1   
    76   73   78 1   
    77   74   75 2   
    78   74   79 1   
    79   79   80 1   
    80   79   86 1   
    81   80   81 1   
    82   80   83 1   
    83   80   87 1   
    84   81   82 2   
    85   81   93 1   
    86   83   84 1   
    87   83   85 1   
    88   83   88 1   
    89   84   90 1   
    90   84   91 1   
    91   84   92 1   
    92   85   89 1   
    93   93   94 1   
    94   93  101 1   
    95   94   95 1   
    96   94   97 1   
    97   94  102 1   
    98   95   96 2   
    99   95  112 1   
   100   97   98 1   
   101   97   99 1   
   102   97  103 1   
   103   98  100 1   
   104   98  104 1   
   105   98  105 1   
   106   99  106 1   
   107   99  107 1   
   108   99  108 1   
   109  100  109 1   
   110  100  110 1   
   111  100  111 1   
   112  112  113 1   
   113  112  119 1   
   114  113  114 1   
   115  113  116 1   
   116  113  120 1   
   117  114  115 2   
   118  114  126 1   
   119  116  117 1   
   120  116  118 1   
   121  116  121 1   
   122  117  123 1   
   123  117  124 1   
   124  117  125 1   
   125  118  122 1   
   126  126  127 1   
   127  126  133 1   
   128  127  128 1   
   129  127  130 1   
   130  127  134 1   
   131  128  129 2   
   132  128  140 1   
   133  130  131 1   
   134  130  132 1   
   135  130  135 1   
   136  131  137 1   
   137  131  138 1   
   138  131  139 1   
   139  132  136 1   
   140  140  141 1   
   141  140  149 1   
   142  141  142 1   
   143  141  144 1   
   144  141  150 1   
   145  142  143 2   
   146  142  162 1   
   147  144  145 1   
   148  144  151 1   
   149  144  152 1   
   150  145  146 1   
   151  145  153 1   
   152  145  154 1   
   153  146  147 1   
   154  146  155 1   
   155  146  156 1   
   156  147  148 1   
   157  147  157 1   
   158  147  158 1   
   159  148  159 1   
   160  148  160 1   
   161  148  161 1   
   162  162  163 1   
   163  162  171 1   
   164  163  164 1   
   165  163  166 1   
   166  163  172 1   
   167  164  165 2   
   168  164  177 1   
   169  166  167 1   
   170  166  173 1   
   171  166  174 1   
   172  167  168 1   
   173  167  175 1   
   174  167  176 1   
   175  168  169 1   
   176  168  170 1   
   177  177  178 1   
   178  177  182 1   
   179  178  179 1   
   180  178  180 1   
   181  178  181 1   
   182  184  185 1   
   183  184  186 1   
   184  187  188 1   
   185  187  189 1   
@<TRIPOS>SUBSTRUCTURE
     1 MOL         1 TEMP              0 ****  ****    0 ROOT
