@<TRIPOS>MOLECULE
MOL
  189   185     1     0     0
SMALL
resp


@<TRIPOS>ATOM
      1 C1         -0.0950    2.8190    5.5790 c3        1 MOL     -0.354126
      2 C2         -0.4750    2.3520    4.1640 c         1 MOL      0.651404
      3 O1          0.2820    2.5880    3.2470 o         1 MOL     -0.582901
      4 H1         -0.2700    3.8910    5.6670 hc        1 MOL      0.093257
      5 H2         -0.7040    2.2890    6.3120 hc        1 MOL      0.093257
      6 H3          0.9590    2.6080    5.7610 hc        1 MOL      0.093257
      7 N1         -1.6970    1.7510    3.9330 n         1 MOL     -0.550534
      8 C3         -2.3030    1.4110    2.6300 c3        1 MOL      0.567661
      9 C4         -2.8860    2.6740    1.9210 c         1 MOL      0.112994
     10 O2         -3.9810    3.1120    2.2100 o         1 MOL     -0.462380
     11 C5         -3.3730    0.3460    2.8890 c3        1 MOL     -0.590854
     12 C6         -4.1570    0.0620    1.5670 c         1 MOL      0.833205
     13 O3         -3.6500    0.3010    0.4600 o         1 MOL     -0.667271
     14 O4         -5.3110   -0.3940    1.7090 o         1 MOL     -0.667271
     15 H4         -2.2540    1.8960    4.7600 hn        1 MOL      0.286369
     16 H5         -1.5800    0.9550    1.9540 h1        1 MOL     -0.079788
     17 H6         -4.1050    0.6660    3.6270 hc        1 MOL      0.130027
     18 H7         -3.0740   -0.6660    3.1680 hc        1 MOL      0.130027
     19 N2         -2.1210    3.4520    1.1350 n         1 MOL     -0.009705
     20 C7         -2.6420    4.7500    0.6210 c3        1 MOL     -0.022127
     21 C8         -3.8480    4.6480   -0.2150 c         1 MOL      0.556551
     22 O5         -4.3570    5.6970   -0.4320 o         1 MOL     -0.582094
     23 C9         -1.5260    5.3860   -0.1060 c3        1 MOL     -0.001177
     24 C10        -0.1670    5.4820    0.6530 c3        1 MOL      0.099089
     25 C11        -0.1900    6.3120    1.9330 c3        1 MOL     -0.218328
     26 C12        -0.5530    7.7300    1.5360 c3        1 MOL      0.280853
     27 N3         -0.3750    8.7060    2.6250 n4        1 MOL     -0.479205
     28 H8         -1.2100    3.2250    0.7620 hn        1 MOL      0.049950
     29 H9         -2.8920    5.3050    1.5270 h1        1 MOL      0.048476
     30 H10        -1.7890    6.3900   -0.4560 hc        1 MOL      0.020360
     31 H11        -1.3390    4.9020   -1.0640 hc        1 MOL      0.020360
     32 H12         0.4680    6.1180    0.0330 hc        1 MOL      0.002977
     33 H13         0.3210    4.5280    0.8250 hc        1 MOL      0.002977
     34 H14         0.7930    6.2830    2.4010 hc        1 MOL      0.077172
     35 H15        -0.9210    5.9160    2.6500 hc        1 MOL      0.077172
     36 H16        -1.5910    7.8580    1.2220 hx        1 MOL      0.018922
     37 H17         0.0490    8.0670    0.6930 hx        1 MOL      0.018922
     38 H18        -0.8880    8.4200    3.4510 hn        1 MOL      0.345104
     39 H19         0.5760    8.8510    2.9190 hn        1 MOL      0.345104
     40 H20        -0.7620    9.6000    2.3560 hn        1 MOL      0.345104
     41 N4         -4.2420    3.4680   -0.7780 n         1 MOL     -0.381393
     42 C13        -5.1630    3.4750   -1.9130 c3        1 MOL      0.063722
     43 C14        -6.3020    2.4120   -1.7910 c         1 MOL      0.438796
     44 O6         -7.0240    2.1320   -2.7560 o         1 MOL     -0.513402
     45 C15        -4.4170    3.3070   -3.3070 c3        1 MOL     -0.148361
     46 C16        -3.3350    2.2070   -3.2460 c         1 MOL      0.853769
     47 O7         -2.4460    2.3610   -4.1200 o         1 MOL     -0.762988
     48 O8         -3.3170    1.3000   -2.4030 o         1 MOL     -0.762988
     49 H21        -3.5900    2.7200   -0.5940 hn        1 MOL      0.196961
     50 H22        -5.7120    4.4140   -1.9900 h1        1 MOL      0.092248
     51 H23        -4.0540    4.2810   -3.6340 hc        1 MOL      0.025496
     52 H24        -5.1700    3.0110   -4.0260 hc        1 MOL      0.025496
     53 N5         -6.5300    1.9330   -0.5650 n         1 MOL     -0.368113
     54 C17        -7.5860    0.9850   -0.2680 c3        1 MOL     -0.094779
     55 C18        -7.5520   -0.4080   -1.0150 c         1 MOL      0.448883
     56 O9         -8.5600   -1.0920   -1.1100 o         1 MOL     -0.573883
     57 H25        -5.7880    2.0540    0.1140 hn        1 MOL      0.256599
     58 H26        -8.5450    1.4780   -0.3990 h1        1 MOL      0.101139
     59 H27        -7.5650    0.6940    0.7830 h1        1 MOL      0.101139
     60 N6         -6.4440   -0.8730   -1.6220 n         1 MOL     -0.212708
     61 C19        -6.4090   -2.2420   -2.1420 c3        1 MOL     -0.030959
     62 C20        -6.3490   -3.2420   -0.9920 c         1 MOL      0.417498
     63 O10        -6.3090   -4.4420   -1.2220 o         1 MOL     -0.555378
     64 C21        -5.3750   -2.4020   -3.1800 c3        1 MOL     -0.226097
     65 C22        -4.0070   -2.1850   -2.6210 c         1 MOL      0.787858
     66 O11        -3.6400   -2.4480   -1.4390 o         1 MOL     -0.753006
     67 O12        -3.0770   -1.7160   -3.3200 o         1 MOL     -0.753006
     68 H28        -5.6060   -0.3140   -1.5910 hn        1 MOL      0.208522
     69 H29        -7.3590   -2.4150   -2.6540 h1        1 MOL      0.131250
     70 H30        -5.5960   -1.7130   -3.9940 hc        1 MOL      0.076186
     71 H31        -5.4410   -3.3840   -3.6480 hc        1 MOL      0.076186
     72 N7         -6.1870   -2.8180    0.2560 n         1 MOL     -0.097559
     73 C23        -6.1840   -3.7140    1.3760 c3        1 MOL     -0.240947
     74 C24        -4.8700   -4.4790    1.6850 c         1 MOL      0.555514
     75 O13        -4.9150   -5.5240    2.2770 o         1 MOL     -0.558883
     76 H32        -5.9510   -1.8530    0.4220 hn        1 MOL      0.198245
     77 H33        -6.9710   -4.4460    1.2360 h1        1 MOL      0.100954
     78 H34        -6.4910   -3.0370    2.1740 h1        1 MOL      0.100954
     79 N8         -3.7610   -4.0300    1.1180 n         1 MOL     -0.167022
     80 C25        -2.3630   -4.4830    1.4550 c3        1 MOL     -0.137857
     81 C26        -1.3270   -3.3310    1.5300 c         1 MOL      0.546075
     82 O14        -1.5480   -2.2050    1.0320 o         1 MOL     -0.602358
     83 C27        -1.8850   -5.5170    0.4290 c3        1 MOL      0.373894
     84 C28        -2.6880   -6.8290    0.4350 c3        1 MOL     -0.481338
     85 O15        -1.8560   -4.9660   -0.8950 oh        1 MOL     -0.602473
     86 H35        -3.8510   -3.1140    0.6970 hn        1 MOL      0.147884
     87 H36        -2.4710   -4.9390    2.4440 h1        1 MOL      0.087289
     88 H37        -0.8750   -5.9010    0.6360 h1        1 MOL      0.047140
     89 H38        -2.6490   -4.4260   -0.9620 ho        1 MOL      0.377708
     90 H39        -2.4490   -7.4420   -0.4290 hc        1 MOL      0.130245
     91 H40        -2.5200   -7.3340    1.3850 hc        1 MOL      0.130245
     92 H41        -3.7520   -6.6150    0.3880 hc        1 MOL      0.130245
     93 N9         -0.0960   -3.6630    1.9620 n         1 MOL     -0.497627
     94 C29         0.9760   -2.6550    2.0170 c3        1 MOL     -0.003553
     95 C30         2.1860   -3.3120    1.2670 c         1 MOL      0.402123
     96 O16         2.6130   -4.4440    1.5750 o         1 MOL     -0.544985
     97 C31         1.4880   -2.3500    3.4420 c3        1 MOL      0.432287
     98 C32         0.2920   -2.1570    4.4170 c3        1 MOL      0.502469
     99 C33         2.4390   -1.1120    3.3300 c3        1 MOL     -0.842318
    100 C34         0.8960   -2.2030    5.7960 c3        1 MOL     -0.289429
    101 H42        -0.0110   -4.6200    2.2580 hn        1 MOL      0.271914
    102 H43         0.7470   -1.7700    1.4390 h1        1 MOL      0.060368
    103 H44         2.0270   -3.1780    3.8820 hc        1 MOL     -0.085456
    104 H45        -0.3630   -3.0320    4.3600 hc        1 MOL     -0.143273
    105 H46        -0.2640   -1.2360    4.2790 hc        1 MOL     -0.143273
    106 H47         3.0770   -1.0780    4.2170 hc        1 MOL      0.163584
    107 H48         3.0300   -1.0650    2.4190 hc        1 MOL      0.163584
    108 H49         1.8780   -0.1770    3.3060 hc        1 MOL      0.163584
    109 H50         1.7420   -1.5220    5.8890 hc        1 MOL      0.044809
    110 H51         0.1110   -2.0450    6.5340 hc        1 MOL      0.044809
    111 H52         1.2260   -3.2160    6.0180 hc        1 MOL      0.044809
    112 N10         2.5980   -2.5770    0.2800 n         1 MOL     -0.117038
    113 C35         3.7890   -2.9360   -0.5600 c3        1 MOL     -0.055939
    114 C36         5.0590   -2.2920   -0.0530 c         1 MOL      0.336177
    115 O17         5.0240   -1.3680    0.7460 o         1 MOL     -0.238829
    116 C37         3.6130   -2.3500   -1.9970 c3        1 MOL      0.397216
    117 C38         2.6720   -3.1810   -2.8560 c3        1 MOL     -0.375104
    118 O18         3.0580   -1.0420   -1.8950 oh        1 MOL     -0.671826
    119 H53         2.1650   -1.6690    0.1380 hn        1 MOL      0.229479
    120 H54         3.8670   -4.0220   -0.6240 h1        1 MOL      0.083330
    121 H55         4.5390   -2.3140   -2.5540 h1        1 MOL     -0.006352
    122 H56         2.1480   -1.1620   -1.6040 ho        1 MOL      0.406587
    123 H57         3.2040   -4.1180   -3.0280 hc        1 MOL      0.091681
    124 H58         1.7870   -3.4740   -2.2700 hc        1 MOL      0.091681
    125 H59         2.4160   -2.6910   -3.7960 hc        1 MOL      0.091681
    126 N11         6.2130   -2.7460   -0.5050 n         1 MOL     -0.322030
    127 C39         7.5600   -2.4010   -0.0430 c3        1 MOL     -0.087289
    128 C40         7.7350   -0.9010   -0.1780 c         1 MOL      0.083635
    129 O19         8.2050   -0.2630    0.7160 o         1 MOL     -0.383731
    130 C41         8.7480   -2.9830   -0.8140 c3        1 MOL      0.656390
    131 C42        10.1050   -2.6730   -0.2470 c3        1 MOL     -0.584825
    132 O20         8.5640   -4.2950   -0.9680 oh        1 MOL     -0.644283
    133 H60         6.2460   -3.3910   -1.2820 hn        1 MOL      0.194524
    134 H61         7.5600   -2.6610    1.0110 h1        1 MOL      0.140164
    135 H62         8.7670   -2.5840   -1.8320 h1        1 MOL     -0.098260
    136 H63         8.3060   -4.4590   -1.8810 ho        1 MOL      0.398626
    137 H64        10.7940   -3.2880   -0.8360 hc        1 MOL      0.159984
    138 H65        10.4100   -1.6360   -0.2720 hc        1 MOL      0.159984
    139 H66        10.2430   -2.9940    0.7940 hc        1 MOL      0.159984
    140 N12         7.3120   -0.2820   -1.3030 n         1 MOL     -0.072505
    141 C43         7.3510    1.1940   -1.3850 c3        1 MOL     -0.154091
    142 C44         6.4160    1.9780   -0.4250 c         1 MOL      0.285093
    143 O21         6.9010    2.9710    0.1400 o         1 MOL     -0.484676
    144 C45         7.1540    1.5430   -2.8680 c3        1 MOL     -0.096596
    145 C46         5.8040    1.1710   -3.5160 c3        1 MOL      0.090845
    146 C47         5.7510    1.4090   -5.0660 c3        1 MOL     -0.189092
    147 C48         5.8620    2.9040   -5.3520 c3        1 MOL     -0.023430
    148 N13         4.8540    3.7550   -4.8050 n4        1 MOL     -0.278308
    149 H67         7.1240   -0.9250   -2.0650 hn        1 MOL      0.169313
    150 H68         8.3690    1.5480   -1.1920 h1        1 MOL      0.158780
    151 H69         7.9690    1.0550   -3.4110 hc        1 MOL      0.045177
    152 H70         7.4540    2.5720   -3.0700 hc        1 MOL      0.045177
    153 H71         5.0200    1.8010   -3.0990 hc        1 MOL      0.010414
    154 H72         5.5170    0.1570   -3.2210 hc        1 MOL      0.010414
    155 H73         4.8190    0.9610   -5.4250 hc        1 MOL      0.101896
    156 H74         6.4800    0.8360   -5.6290 hc        1 MOL      0.101896
    157 H75         5.8330    3.0610   -6.4370 hx        1 MOL      0.096497
    158 H76         6.8210    3.2770   -5.0050 hx        1 MOL      0.096497
    159 H77         4.8990    4.6670   -5.2360 hn        1 MOL      0.313725
    160 H78         3.9390    3.4000   -5.0700 hn        1 MOL      0.313725
    161 H79         4.8120    3.7600   -3.7980 hn        1 MOL      0.313725
    162 N14         5.2600    1.5070   -0.1590 n         1 MOL     -0.009701
    163 C49         4.2850    2.1750    0.7870 c3        1 MOL     -0.129294
    164 C50         4.8750    2.0290    2.2000 c         1 MOL      0.381215
    165 O22         4.9850    3.0450    2.9400 o         1 MOL     -0.551483
    166 C51         2.8980    1.5860    0.8330 c3        1 MOL      0.119495
    167 C52         2.0630    2.0630   -0.3580 c3        1 MOL     -0.048200
    168 C53         0.7180    1.1470   -0.4860 c         1 MOL      0.743734
    169 O23         0.8630   -0.1150   -0.5200 o         1 MOL     -0.695832
    170 O24        -0.4100    1.6050   -0.8170 o         1 MOL     -0.695832
    171 H80         4.8820    0.6850   -0.6260 hn        1 MOL      0.109804
    172 H81         4.2020    3.2390    0.5920 h1        1 MOL      0.072526
    173 H82         2.3930    1.8630    1.7670 hc        1 MOL      0.041740
    174 H83         3.0370    0.5120    0.7920 hc        1 MOL      0.041740
    175 H84         2.6490    1.9280   -1.2700 hc        1 MOL     -0.042943
    176 H85         1.8060    3.1110   -0.2220 hc        1 MOL     -0.042943
    177 N15         5.3980    0.8470    2.5340 n         1 MOL      0.007771
    178 C54         6.0420    0.5840    3.8720 c3        1 MOL     -0.293320
    179 H86         5.9960    1.4870    4.4810 h1        1 MOL      0.112855
    180 H87         5.5110   -0.2230    4.3790 h1        1 MOL      0.112855
    181 H88         7.0840    0.2980    3.7240 h1        1 MOL      0.112855
    182 H89         5.3970    0.1130    1.8410 hn        1 MOL      0.104191
    183 Ca1        -1.7950   -0.6030   -1.2640 Ca        1 MOL      1.736306
    184 O25        -0.8810   -0.0880   -3.8150 oh        1 MOL     -0.884720
    185 H90        -0.9240    0.8200   -4.0900 ho        1 MOL      0.412988
    186 H91        -1.3630   -0.5640   -4.4980 ho        1 MOL      0.412988
    187 O26        -0.3940   -2.9390   -1.7390 oh        1 MOL     -0.884720
    188 H92         0.0210   -3.2830   -2.5320 ho        1 MOL      0.412988
    189 H93        -1.1770   -3.4860   -1.6270 ho        1 MOL      0.412988
@<TRIPOS>BOND
     1    1    2 1   
     2    1    4 1   
     3    1    5 1   
     4    1    6 1   
     5    2    3 2   
     6    2    7 1   
     7    7    8 1   
     8    7   15 1   
     9    8    9 1   
    10    8   11 1   
    11    8   16 1   
    12    9   10 2   
    13    9   19 1   
    14   11   12 1   
    15   11   17 1   
    16   11   18 1   
    17   12   13 1   
    18   12   14 1   
    19   19   20 1   
    20   19   28 1   
    21   20   21 1   
    22   20   23 1   
    23   20   29 1   
    24   21   22 2   
    25   21   41 1   
    26   23   24 1   
    27   23   30 1   
    28   23   31 1   
    29   24   25 1   
    30   24   32 1   
    31   24   33 1   
    32   25   26 1   
    33   25   34 1   
    34   25   35 1   
    35   26   27 1   
    36   26   36 1   
    37   26   37 1   
    38   27   38 1   
    39   27   39 1   
    40   27   40 1   
    41   41   42 1   
    42   41   49 1   
    43   42   43 1   
    44   42   45 1   
    45   42   50 1   
    46   43   44 2   
    47   43   53 1   
    48   45   46 1   
    49   45   51 1   
    50   45   52 1   
    51   46   47 1   
    52   46   48 1   
    53   53   54 1   
    54   53   57 1   
    55   54   55 1   
    56   54   58 1   
    57   54   59 1   
    58   55   56 2   
    59   55   60 1   
    60   60   61 1   
    61   60   68 1   
    62   61   62 1   
    63   61   64 1   
    64   61   69 1   
    65   62   63 2   
    66   62   72 1   
    67   64   65 1   
    68   64   70 1   
    69   64   71 1   
    70   65   66 1   
    71   65   67 1   
    72   72   73 1   
    73   72   76 1   
    74   73   74 1   
    75   73   77 1   
    76   73   78 1   
    77   74   75 2   
    78   74   79 1   
    79   79   80 1   
    80   79   86 1   
    81   80   81 1   
    82   80   83 1   
    83   80   87 1   
    84   81   82 2   
    85   81   93 1   
    86   83   84 1   
    87   83   85 1   
    88   83   88 1   
    89   84   90 1   
    90   84   91 1   
    91   84   92 1   
    92   85   89 1   
    93   93   94 1   
    94   93  101 1   
    95   94   95 1   
    96   94   97 1   
    97   94  102 1   
    98   95   96 2   
    99   95  112 1   
   100   97   98 1   
   101   97   99 1   
   102   97  103 1   
   103   98  100 1   
   104   98  104 1   
   105   98  105 1   
   106   99  106 1   
   107   99  107 1   
   108   99  108 1   
   109  100  109 1   
   110  100  110 1   
   111  100  111 1   
   112  112  113 1   
   113  112  119 1   
   114  113  114 1   
   115  113  116 1   
   116  113  120 1   
   117  114  115 2   
   118  114  126 1   
   119  116  117 1   
   120  116  118 1   
   121  116  121 1   
   122  117  123 1   
   123  117  124 1   
   124  117  125 1   
   125  118  122 1   
   126  126  127 1   
   127  126  133 1   
   128  127  128 1   
   129  127  130 1   
   130  127  134 1   
   131  128  129 2   
   132  128  140 1   
   133  130  131 1   
   134  130  132 1   
   135  130  135 1   
   136  131  137 1   
   137  131  138 1   
   138  131  139 1   
   139  132  136 1   
   140  140  141 1   
   141  140  149 1   
   142  141  142 1   
   143  141  144 1   
   144  141  150 1   
   145  142  143 2   
   146  142  162 1   
   147  144  145 1   
   148  144  151 1   
   149  144  152 1   
   150  145  146 1   
   151  145  153 1   
   152  145  154 1   
   153  146  147 1   
   154  146  155 1   
   155  146  156 1   
   156  147  148 1   
   157  147  157 1   
   158  147  158 1   
   159  148  159 1   
   160  148  160 1   
   161  148  161 1   
   162  162  163 1   
   163  162  171 1   
   164  163  164 1   
   165  163  166 1   
   166  163  172 1   
   167  164  165 2   
   168  164  177 1   
   169  166  167 1   
   170  166  173 1   
   171  166  174 1   
   172  167  168 1   
   173  167  175 1   
   174  167  176 1   
   175  168  169 1   
   176  168  170 1   
   177  177  178 1   
   178  177  182 1   
   179  178  179 1   
   180  178  180 1   
   181  178  181 1   
   182  184  185 1   
   183  184  186 1   
   184  187  188 1   
   185  187  189 1   
@<TRIPOS>SUBSTRUCTURE
     1 MOL         1 TEMP              0 ****  ****    0 ROOT
