@<TRIPOS>MOLECULE
MOL
  183   181     1     0     0
SMALL
resp


@<TRIPOS>ATOM
      1 C1         -0.7650    2.2300    6.2540 c3        1 MOL     -0.255580
      2 C2         -1.1540    2.1430    4.7850 c         1 MOL      0.734175
      3 O1         -0.2700    2.2110    3.9390 o         1 MOL     -0.568444
      4 H1          0.0050    1.4900    6.4690 hc        1 MOL      0.049985
      5 H2         -0.3810    3.2270    6.4700 hc        1 MOL      0.049985
      6 H3         -1.6400    2.0340    6.8740 hc        1 MOL      0.049985
      7 N1         -2.4160    1.9870    4.4710 n         1 MOL     -0.617909
      8 C3         -2.8320    1.7870    3.0380 c3        1 MOL      0.204028
      9 C4         -3.1830    3.1040    2.3690 c         1 MOL      0.425569
     10 O2         -3.9740    3.9830    2.7930 o         1 MOL     -0.574165
     11 C5         -3.9260    0.6990    2.9930 c3        1 MOL     -0.231500
     12 C6         -4.4700    0.3110    1.6400 c         1 MOL      0.898901
     13 O3         -5.4320   -0.4870    1.6440 o         1 MOL     -0.698500
     14 O4         -3.9670    0.7680    0.6040 o         1 MOL     -0.698500
     15 H4         -3.1370    1.9600    5.1870 hn        1 MOL      0.338280
     16 H5         -2.0290    1.3400    2.4470 h1        1 MOL      0.059570
     17 H6         -4.7940    1.1230    3.5020 hc        1 MOL      0.021756
     18 H7         -3.5920   -0.1420    3.6090 hc        1 MOL      0.021756
     19 N2         -2.3480    3.4030    1.3500 n         1 MOL     -0.105283
     20 C7         -2.3390    4.7130    0.7030 c3        1 MOL     -0.132166
     21 C8         -3.4840    4.8520   -0.3230 c         1 MOL      0.554196
     22 O5         -4.0030    5.9370   -0.4410 o         1 MOL     -0.591603
     23 C9         -0.9520    5.0580    0.0860 c3        1 MOL      0.240423
     24 C10         0.0530    5.0180    1.1620 c3        1 MOL     -0.081678
     25 C11        -1.0550    6.4900   -0.5670 c3        1 MOL     -0.358058
     26 C12        -0.1610    6.0090    2.3610 c3        1 MOL     -0.252304
     27 H8         -1.8670    2.5820    1.0030 hn        1 MOL      0.031434
     28 H9         -2.5290    5.4240    1.5130 h1        1 MOL      0.107196
     29 H10        -0.5800    4.3700   -0.6700 hc        1 MOL      0.020973
     30 H11         1.0510    5.0340    0.7190 hc        1 MOL      0.063494
     31 H12         0.0960    4.0380    1.6370 hc        1 MOL      0.063494
     32 H13        -1.4870    7.1930    0.1360 hc        1 MOL      0.079119
     33 H14        -0.0780    6.7260   -0.9900 hc        1 MOL      0.079119
     34 H15        -1.7380    6.4390   -1.4260 hc        1 MOL      0.079119
     35 H16        -0.0660    7.0470    2.0300 hc        1 MOL      0.058263
     36 H17        -1.1120    5.8340    2.8520 hc        1 MOL      0.058263
     37 H18         0.6240    5.9080    3.1000 hc        1 MOL      0.058263
     38 N3         -3.8860    3.7900   -0.9810 n         1 MOL     -0.561319
     39 C13        -4.9420    3.8950   -2.0200 c3        1 MOL      0.252441
     40 C14        -6.2910    3.2480   -1.6210 c         1 MOL      0.484830
     41 O6         -7.3230    3.6250   -2.1740 o         1 MOL     -0.552330
     42 C15        -4.2950    3.4840   -3.3660 c3        1 MOL     -0.139220
     43 C16        -3.7210    2.1190   -3.4500 c         1 MOL      0.741425
     44 O7         -3.2190    1.7130   -4.5340 o         1 MOL     -0.726425
     45 O8         -3.7170    1.3230   -2.4760 o         1 MOL     -0.726425
     46 H19        -3.4060    2.9230   -0.7660 hn        1 MOL      0.355650
     47 H20        -5.1870    4.9330   -2.2210 h1        1 MOL      0.024731
     48 H21        -3.4380    4.1300   -3.5820 hc        1 MOL      0.014409
     49 H22        -5.0860    3.7480   -4.0810 hc        1 MOL      0.014409
     50 N4         -6.3910    2.4010   -0.5540 n         1 MOL     -0.276944
     51 C17        -7.6670    1.7360   -0.2710 c3        1 MOL     -0.090731
     52 C18        -7.9870    0.5300   -1.2030 c         1 MOL      0.467910
     53 O9         -8.9410    0.6030   -1.9660 o         1 MOL     -0.562555
     54 H23        -5.5640    2.0390   -0.0970 hn        1 MOL      0.177048
     55 H24        -8.5010    2.4300   -0.1440 h1        1 MOL      0.067084
     56 H25        -7.6030    1.3770    0.7550 h1        1 MOL      0.067084
     57 N5         -7.2050   -0.5230   -1.1380 n         1 MOL     -0.097798
     58 C19        -7.5160   -1.8550   -1.7370 c3        1 MOL     -0.003216
     59 C20        -7.5470   -2.9420   -0.5900 c         1 MOL      0.357439
     60 O10        -8.0490   -4.0320   -0.8770 o         1 MOL     -0.538153
     61 C21        -6.5700   -2.2080   -2.8450 c3        1 MOL     -0.024379
     62 C22        -5.0890   -2.0470   -2.4420 c         1 MOL      0.630029
     63 O11        -4.2550   -1.6850   -3.2660 o         1 MOL     -0.672223
     64 O12        -4.7380   -2.2210   -1.2270 o         1 MOL     -0.672223
     65 H26        -6.4240   -0.4610   -0.5050 hn        1 MOL     -0.061710
     66 H27        -8.4690   -1.9000   -2.2560 h1        1 MOL      0.064984
     67 H28        -6.6170   -1.5220   -3.6830 hc        1 MOL      0.022711
     68 H29        -6.6770   -3.1910   -3.2870 hc        1 MOL      0.022711
     69 N6         -7.0550   -2.6880    0.6340 n         1 MOL     -0.205828
     70 C23        -7.0060   -3.6350    1.7170 c3        1 MOL     -0.103868
     71 C24        -5.6470   -4.3190    1.8780 c         1 MOL      0.600163
     72 O13        -5.5100   -5.0380    2.8200 o         1 MOL     -0.614943
     73 H30        -6.7790   -1.7410    0.8360 hn        1 MOL      0.224583
     74 H31        -7.7290   -4.4060    1.4520 h1        1 MOL      0.065598
     75 H32        -7.2220   -3.2180    2.6950 h1        1 MOL      0.065598
     76 N7         -4.6420   -4.0350    1.0720 n         1 MOL     -0.315550
     77 C25        -3.2390   -4.4320    1.3470 c3        1 MOL     -0.089456
     78 C26        -2.2230   -3.3070    1.3320 c         1 MOL      0.921806
     79 O14        -2.6290   -2.1240    1.1060 o         1 MOL     -0.738417
     80 C27        -2.8200   -5.5530    0.3980 c3        1 MOL      0.064264
     81 C28        -2.8830   -5.2840   -1.0930 c3        1 MOL     -0.211417
     82 C29        -1.8160   -4.3200   -1.6700 c         1 MOL      0.725538
     83 N8         -0.6240   -4.8090   -1.8920 n         1 MOL     -0.783011
     84 O15        -2.0440   -3.1480   -1.9160 o         1 MOL     -0.624069
     85 H33        -4.8480   -3.4800    0.2610 hn        1 MOL      0.283070
     86 H34        -3.2100   -4.8710    2.3470 h1        1 MOL      0.083523
     87 H35        -3.3890   -6.4860    0.5140 hc        1 MOL     -0.008766
     88 H36        -1.8240   -5.9170    0.6550 hc        1 MOL     -0.008766
     89 H37        -3.8600   -4.8430   -1.2840 hc        1 MOL      0.048439
     90 H38        -2.7180   -6.2160   -1.6280 hc        1 MOL      0.048439
     91 H39        -0.5900   -5.8100   -1.7740 hn        1 MOL      0.338898
     92 H40        -0.0500   -4.4560   -2.6300 hn        1 MOL      0.338898
     93 N9         -0.9310   -3.5680    1.6770 n         1 MOL     -0.811906
     94 C30         0.1280   -2.5970    1.9450 c3        1 MOL      0.262231
     95 C31         1.4160   -3.1190    1.3240 c         1 MOL      0.404268
     96 O16         1.9070   -4.1490    1.7940 o         1 MOL     -0.564859
     97 C32         0.3770   -2.3880    3.5110 c3        1 MOL      0.290378
     98 C33         1.4830   -1.3520    3.7480 c3        1 MOL     -0.358820
     99 C34        -0.9190   -1.9040    4.2330 c3        1 MOL     -0.358820
    100 H41        -0.5880   -4.5180    1.7930 hn        1 MOL      0.336902
    101 H42        -0.2050   -1.6110    1.6440 h1        1 MOL      0.018078
    102 H43         0.6310   -3.3640    3.9260 hc        1 MOL     -0.047879
    103 H44         1.5920   -1.2550    4.8300 hc        1 MOL      0.079292
    104 H45         2.4180   -1.6970    3.3250 hc        1 MOL      0.079292
    105 H46         1.2120   -0.3300    3.4900 hc        1 MOL      0.079292
    106 H47        -0.6770   -1.9810    5.2880 hc        1 MOL      0.079292
    107 H48        -1.2210   -0.8990    3.9300 hc        1 MOL      0.079292
    108 H49        -1.7540   -2.6000    4.1720 hc        1 MOL      0.079292
    109 N10         1.9520   -2.4550    0.2850 n         1 MOL     -0.344384
    110 C35         3.2580   -2.8980   -0.3160 c3        1 MOL      0.308476
    111 C36         4.4630   -2.0520    0.1790 c         1 MOL      0.282690
    112 O17         4.3300   -1.1170    0.9260 o         1 MOL     -0.216116
    113 C37         3.0750   -2.9060   -1.8420 c3        1 MOL     -0.742001
    114 C38         3.1160   -1.5290   -2.5020 c         1 MOL      0.843975
    115 N11         1.9040   -0.9480   -2.7180 n         1 MOL     -0.931934
    116 O18         4.1320   -1.0440   -2.8400 o         1 MOL     -0.538000
    117 H50         1.4070   -1.7320   -0.1640 hn        1 MOL      0.263917
    118 H51         3.4720   -3.9070    0.0500 h1        1 MOL      0.037074
    119 H52         2.0800   -3.3460   -1.9430 hc        1 MOL      0.204128
    120 H53         3.6970   -3.6650   -2.3110 hc        1 MOL      0.204128
    121 H54         1.0340   -1.3370   -2.3830 hn        1 MOL      0.420142
    122 H55         1.9000   -0.1410   -3.3250 hn        1 MOL      0.420142
    123 N12         5.6850   -2.4340   -0.2230 n         1 MOL     -0.515933
    124 C39         6.9120   -1.7560    0.1940 c3        1 MOL      0.250427
    125 C40         6.9490   -0.2360   -0.0910 c         1 MOL      0.638695
    126 O19         7.3960    0.4580    0.7670 o         1 MOL     -0.542826
    127 C41         8.1140   -2.6100   -0.3370 c3        1 MOL     -0.215444
    128 C42         9.4840   -1.9820   -0.0650 ca        1 MOL     -0.077117
    129 C43         9.8990   -1.8820    1.3090 ca        1 MOL     -0.028321
    130 C44        10.3180   -1.5470   -1.0980 ca        1 MOL     -0.028321
    131 C45        11.2140   -1.3810    1.5970 ca        1 MOL     -0.379139
    132 C46        11.5610   -1.0140   -0.6990 ca        1 MOL     -0.379139
    133 C47        12.0320   -0.7650    0.6220 ca        1 MOL      0.461493
    134 O20        13.1510   -0.0290    0.9300 oh        1 MOL     -0.522713
    135 H56         5.8450   -3.1180   -0.9500 hn        1 MOL      0.273818
    136 H57         6.9540   -1.8810    1.2730 h1        1 MOL      0.017871
    137 H58         7.9520   -2.5710   -1.4160 hc        1 MOL      0.078657
    138 H59         8.0840   -3.6510   -0.0420 hc        1 MOL      0.078657
    139 H60         9.2830   -2.2120    2.1310 ha        1 MOL      0.123628
    140 H61        10.0700   -1.6460   -2.1440 ha        1 MOL      0.123628
    141 H62        11.5500   -1.4990    2.6110 ha        1 MOL      0.145024
    142 H63        12.1420   -0.5640   -1.4980 ha        1 MOL      0.145024
    143 H64        13.7690    0.1710    0.2300 ho        1 MOL      0.371148
    144 N13         6.3170    0.3180   -1.1750 n         1 MOL     -0.479347
    145 C48         6.1920    1.7670   -1.3930 c3        1 MOL     -0.042104
    146 C49         5.1220    2.4740   -0.4890 c         1 MOL      0.241646
    147 O21         5.2310    3.6990   -0.2680 o         1 MOL     -0.506927
    148 C50         5.8890    1.9080   -2.8740 c3        1 MOL      0.051524
    149 C51         7.0770    1.4270   -3.6850 c3        1 MOL     -0.174933
    150 C52         6.6410    1.4390   -5.1590 c         1 MOL      0.700827
    151 O22         6.2230    0.4100   -5.7370 o         1 MOL     -0.741466
    152 O23         6.7390    2.5120   -5.7770 o         1 MOL     -0.741466
    153 H65         5.9410   -0.3280   -1.8490 hn        1 MOL      0.271392
    154 H66         7.1500    2.2780   -1.3020 h1        1 MOL      0.126981
    155 H67         5.7840    2.9370   -3.2330 hc        1 MOL      0.034688
    156 H68         5.0100    1.3440   -3.1810 hc        1 MOL      0.034688
    157 H69         7.3690    0.4140   -3.4180 hc        1 MOL     -0.007552
    158 H70         7.9270    2.1020   -3.5810 hc        1 MOL     -0.007552
    159 N14         4.2760    1.7200    0.1600 n         1 MOL     -0.040238
    160 C53         3.3480    2.1910    1.1910 c3        1 MOL      0.079311
    161 C54         3.8980    2.0600    2.6490 c         1 MOL      0.415994
    162 O24         3.7410    2.9870    3.4700 o         1 MOL     -0.583289
    163 C55         1.9940    1.3820    1.1040 c3        1 MOL     -0.206932
    164 C56         1.3260    1.6360   -0.2650 c3        1 MOL      0.033439
    165 C57         0.0360    0.8690   -0.3770 c         1 MOL      1.067727
    166 O25        -1.0850    1.4400   -0.3730 o         1 MOL     -0.871071
    167 O26         0.0290   -0.3630   -0.6490 o         1 MOL     -0.871071
    168 H71         4.2020    0.7630   -0.1520 hn        1 MOL      0.208942
    169 H72         3.0760    3.2340    1.0250 h1        1 MOL      0.039769
    170 H73         1.3790    1.8180    1.8920 hc        1 MOL      0.056004
    171 H74         2.2250    0.3210    1.2060 hc        1 MOL      0.056004
    172 H75         1.9600    1.3460   -1.1050 hc        1 MOL     -0.051681
    173 H76         0.9880    2.6690   -0.3900 hc        1 MOL     -0.051681
    174 N15         4.6980    1.0890    2.8880 n         1 MOL     -0.005069
    175 C58         5.5240    0.7480    4.1250 c3        1 MOL     -0.185980
    176 H77         5.2700   -0.2550    4.4650 h1        1 MOL      0.080174
    177 H78         6.5860    0.7890    3.8760 h1        1 MOL      0.080174
    178 H79         5.3070    1.4650    4.9160 h1        1 MOL      0.080174
    179 H80         4.7760    0.4710    2.0930 hn        1 MOL     -0.062465
    180 Ca1        -2.7330   -0.6790   -1.0900 Ca        1 MOL      1.764086
    181 O27        -1.3900   -0.4530   -3.6500 oh        1 MOL     -0.820121
    182 H81        -0.7910   -0.2500   -4.3660 ho        1 MOL      0.402547
    183 H82        -2.1210   -0.9110   -4.0740 ho        1 MOL      0.402547
@<TRIPOS>BOND
     1    1    2 1   
     2    1    4 1   
     3    1    5 1   
     4    1    6 1   
     5    2    3 2   
     6    2    7 1   
     7    7    8 1   
     8    7   15 1   
     9    8    9 1   
    10    8   11 1   
    11    8   16 1   
    12    9   10 2   
    13    9   19 1   
    14   11   12 1   
    15   11   17 1   
    16   11   18 1   
    17   12   13 1   
    18   12   14 1   
    19   19   20 1   
    20   19   27 1   
    21   20   21 1   
    22   20   23 1   
    23   20   28 1   
    24   21   22 2   
    25   21   38 1   
    26   23   24 1   
    27   23   25 1   
    28   23   29 1   
    29   24   26 1   
    30   24   30 1   
    31   24   31 1   
    32   25   32 1   
    33   25   33 1   
    34   25   34 1   
    35   26   35 1   
    36   26   36 1   
    37   26   37 1   
    38   38   39 1   
    39   38   46 1   
    40   39   40 1   
    41   39   42 1   
    42   39   47 1   
    43   40   41 2   
    44   40   50 1   
    45   42   43 1   
    46   42   48 1   
    47   42   49 1   
    48   43   44 1   
    49   43   45 1   
    50   50   51 1   
    51   50   54 1   
    52   51   52 1   
    53   51   55 1   
    54   51   56 1   
    55   52   53 2   
    56   52   57 1   
    57   57   58 1   
    58   57   65 1   
    59   58   59 1   
    60   58   61 1   
    61   58   66 1   
    62   59   60 2   
    63   59   69 1   
    64   61   62 1   
    65   61   67 1   
    66   61   68 1   
    67   62   63 1   
    68   62   64 1   
    69   69   70 1   
    70   69   73 1   
    71   70   71 1   
    72   70   74 1   
    73   70   75 1   
    74   71   72 2   
    75   71   76 1   
    76   76   77 1   
    77   76   85 1   
    78   77   78 1   
    79   77   80 1   
    80   77   86 1   
    81   78   79 2   
    82   78   93 1   
    83   80   81 1   
    84   80   87 1   
    85   80   88 1   
    86   81   82 1   
    87   81   89 1   
    88   81   90 1   
    89   82   83 1   
    90   82   84 2   
    91   83   91 1   
    92   83   92 1   
    93   93   94 1   
    94   93  100 1   
    95   94   95 1   
    96   94   97 1   
    97   94  101 1   
    98   95   96 2   
    99   95  109 1   
   100   97   98 1   
   101   97   99 1   
   102   97  102 1   
   103   98  103 1   
   104   98  104 1   
   105   98  105 1   
   106   99  106 1   
   107   99  107 1   
   108   99  108 1   
   109  109  110 1   
   110  109  117 1   
   111  110  111 1   
   112  110  113 1   
   113  110  118 1   
   114  111  112 2   
   115  111  123 1   
   116  113  114 1   
   117  113  119 1   
   118  113  120 1   
   119  114  115 1   
   120  114  116 2   
   121  115  121 1   
   122  115  122 1   
   123  123  124 1   
   124  123  135 1   
   125  124  125 1   
   126  124  127 1   
   127  124  136 1   
   128  125  126 2   
   129  125  144 1   
   130  127  128 1   
   131  127  137 1   
   132  127  138 1   
   133  128  129 ar  
   134  128  130 ar  
   135  129  131 ar  
   136  129  139 1   
   137  130  132 ar  
   138  130  140 1   
   139  131  133 ar  
   140  131  141 1   
   141  132  133 ar  
   142  132  142 1   
   143  133  134 1   
   144  134  143 1   
   145  144  145 1   
   146  144  153 1   
   147  145  146 1   
   148  145  148 1   
   149  145  154 1   
   150  146  147 2   
   151  146  159 1   
   152  148  149 1   
   153  148  155 1   
   154  148  156 1   
   155  149  150 1   
   156  149  157 1   
   157  149  158 1   
   158  150  151 1   
   159  150  152 1   
   160  159  160 1   
   161  159  168 1   
   162  160  161 1   
   163  160  163 1   
   164  160  169 1   
   165  161  162 2   
   166  161  174 1   
   167  163  164 1   
   168  163  170 1   
   169  163  171 1   
   170  164  165 1   
   171  164  172 1   
   172  164  173 1   
   173  165  166 1   
   174  165  167 1   
   175  174  175 1   
   176  174  179 1   
   177  175  176 1   
   178  175  177 1   
   179  175  178 1   
   180  181  182 1   
   181  181  183 1   
@<TRIPOS>SUBSTRUCTURE
     1 MOL         1 TEMP              0 ****  ****    0 ROOT
