@<TRIPOS>MOLECULE
MOL
  189   185     1     0     0
SMALL
resp


@<TRIPOS>ATOM
      1 C1         -0.3940    1.9700    6.4740 c3        1 MOL     -0.147100
      2 C2         -0.6080    1.7980    4.9450 c         1 MOL      0.760026
      3 O1          0.2600    2.1880    4.1570 o         1 MOL     -0.651661
      4 H1          0.4520    2.6340    6.6500 hc        1 MOL      0.033384
      5 H2         -1.2920    2.3990    6.9210 hc        1 MOL      0.033384
      6 H3         -0.1930    0.9980    6.9250 hc        1 MOL      0.033384
      7 N1         -1.6860    1.1690    4.5530 n         1 MOL     -0.748197
      8 C3         -2.1340    1.2410    3.1480 c3        1 MOL      0.472549
      9 C4         -2.2960    2.7080    2.7480 c         1 MOL      0.469798
     10 O2         -2.9420    3.5130    3.4970 o         1 MOL     -0.571130
     11 C5         -3.3840    0.3260    3.0080 c3        1 MOL     -0.365616
     12 C6         -3.8990    0.2590    1.5710 c         1 MOL      0.778048
     13 O3         -5.0000   -0.2720    1.3220 o         1 MOL     -0.594492
     14 O4         -3.2400    0.9200    0.7060 o         1 MOL     -0.594492
     15 H4         -2.2050    0.6010    5.2010 hn        1 MOL      0.365936
     16 H5         -1.3700    0.8420    2.4680 h1        1 MOL     -0.173474
     17 H6         -4.1900    0.5880    3.6880 hc        1 MOL      0.077611
     18 H7         -3.1040   -0.7150    3.1660 hc        1 MOL      0.077611
     19 N2         -1.6350    3.1200    1.6420 n         1 MOL     -0.062603
     20 C7         -1.4610    4.5640    1.3340 c3        1 MOL     -0.344061
     21 C8         -2.3970    5.0090    0.2120 c         1 MOL      0.605131
     22 O5         -2.6740    6.2010   -0.0200 o         1 MOL     -0.596580
     23 C9          0.0250    4.6980    1.0200 c3        1 MOL     -0.040848
     24 C10         0.6050    6.1590    1.0210 c3        1 MOL      0.180630
     25 C11         2.1370    6.0880    0.7740 c3        1 MOL     -0.125583
     26 C12         2.7000    7.5110    0.5780 c3        1 MOL     -0.233731
     27 N3          2.1750    8.2170   -0.5600 n4        1 MOL     -0.283130
     28 H8         -1.2660    2.3540    1.0920 hn        1 MOL      0.074817
     29 H9         -1.7980    5.1850    2.1720 h1        1 MOL      0.163379
     30 H10         0.2100    4.2500    0.0450 hc        1 MOL      0.070540
     31 H11         0.6020    4.1880    1.7930 hc        1 MOL      0.070540
     32 H12         0.4180    6.6750    1.9680 hc        1 MOL     -0.021038
     33 H13         0.1100    6.7320    0.2370 hc        1 MOL     -0.021038
     34 H14         2.3370    5.5520   -0.1540 hc        1 MOL      0.084203
     35 H15         2.5380    5.5260    1.6220 hc        1 MOL      0.084203
     36 H16         3.7920    7.4430    0.5410 hx        1 MOL      0.157924
     37 H17         2.3380    7.9840    1.4870 hx        1 MOL      0.157924
     38 H18         2.1180    7.6270   -1.3660 hn        1 MOL      0.317488
     39 H19         1.2290    8.4640   -0.3100 hn        1 MOL      0.317488
     40 H20         2.7320    9.0300   -0.7890 hn        1 MOL      0.317488
     41 N4         -3.0630    4.0500   -0.4880 n         1 MOL     -0.309856
     42 C13        -4.0600    4.3680   -1.5800 c3        1 MOL      0.013550
     43 C14        -5.4290    3.6500   -1.2910 c         1 MOL      0.440099
     44 O6         -6.4440    4.0540   -1.8760 o         1 MOL     -0.539393
     45 C15        -3.5790    3.9660   -3.0360 c3        1 MOL     -0.318349
     46 C16        -2.9390    2.5930   -3.0940 c         1 MOL      0.797371
     47 O7         -2.1260    2.4310   -4.0430 o         1 MOL     -0.711619
     48 O8         -3.0310    1.7300   -2.1560 o         1 MOL     -0.711619
     49 H21        -2.8080    3.0810   -0.4140 hn        1 MOL      0.235020
     50 H22        -4.2800    5.4320   -1.5600 h1        1 MOL      0.096064
     51 H23        -2.7830    4.6510   -3.3270 hc        1 MOL      0.092682
     52 H24        -4.4210    4.0400   -3.7210 hc        1 MOL      0.092682
     53 N5         -5.5140    2.7560   -0.3410 n         1 MOL     -0.235049
     54 C17        -6.7900    2.2930    0.0670 c3        1 MOL      0.063588
     55 C18        -7.3900    1.0660   -0.6020 c         1 MOL      0.437157
     56 O9         -8.5910    1.0210   -0.8240 o         1 MOL     -0.589389
     57 H25        -4.6600    2.4080    0.0910 hn        1 MOL      0.110605
     58 H26        -7.5610    3.0610    0.0380 h1        1 MOL      0.043991
     59 H27        -6.7050    2.1510    1.1460 h1        1 MOL      0.043991
     60 N6         -6.5880    0.1730   -1.1040 n         1 MOL     -0.020157
     61 C19        -6.9410   -0.9890   -1.9570 c3        1 MOL      0.018251
     62 C20        -7.0820   -2.2940   -1.1380 c         1 MOL      0.422328
     63 O10        -7.4540   -3.3060   -1.6900 o         1 MOL     -0.538951
     64 C21        -5.9620   -1.1310   -3.1930 c3        1 MOL     -0.275555
     65 C22        -4.5250   -1.3900   -2.7260 c         1 MOL      0.764685
     66 O11        -3.6130   -1.3430   -3.5650 o         1 MOL     -0.693557
     67 O12        -4.2410   -1.5670   -1.5010 o         1 MOL     -0.693557
     68 H28        -5.7030    0.1930   -0.6250 hn        1 MOL     -0.045192
     69 H29        -7.9290   -0.8980   -2.4120 h1        1 MOL      0.110389
     70 H30        -6.0530   -0.1850   -3.7150 hc        1 MOL      0.089627
     71 H31        -6.2260   -1.9930   -3.8100 hc        1 MOL      0.089627
     72 N7         -6.8080   -2.2840    0.1710 n         1 MOL     -0.312674
     73 C23        -6.8060   -3.4750    1.0350 c3        1 MOL     -0.054083
     74 C24        -5.4630   -4.2690    1.2360 c         1 MOL      0.456166
     75 O13        -5.4780   -5.3250    1.7740 o         1 MOL     -0.531220
     76 H32        -6.4230   -1.3940    0.4430 hn        1 MOL      0.217945
     77 H33        -7.5370   -4.2160    0.7170 h1        1 MOL      0.088304
     78 H34        -7.1300   -3.1900    2.0350 h1        1 MOL      0.088304
     79 N8         -4.3480   -3.7460    0.6420 n         1 MOL     -0.091857
     80 C25        -3.0820   -4.4400    0.5370 c3        1 MOL     -0.242546
     81 C26        -1.9080   -3.5320    0.7680 c         1 MOL      0.734883
     82 O14        -2.0090   -2.3020    0.4970 o         1 MOL     -0.639724
     83 C27        -2.9670   -5.3220   -0.6920 c3        1 MOL      0.488581
     84 C28        -4.1340   -6.2520   -1.0230 c3        1 MOL     -0.549944
     85 O15        -2.8960   -4.5330   -1.8120 oh        1 MOL     -0.668346
     86 H35        -4.4240   -2.8000    0.2890 hn        1 MOL      0.044523
     87 H36        -3.0800   -5.1240    1.3800 h1        1 MOL      0.064601
     88 H37        -2.0140   -5.8620   -0.5820 h1        1 MOL     -0.008712
     89 H38        -3.6420   -3.9340   -1.8220 ho        1 MOL      0.452110
     90 H39        -3.8600   -6.6850   -1.9850 hc        1 MOL      0.150498
     91 H40        -4.1730   -7.0000   -0.2320 hc        1 MOL      0.150498
     92 H41        -5.0720   -5.7040   -1.1290 hc        1 MOL      0.150498
     93 N9         -0.7380   -4.0880    1.1340 n         1 MOL     -0.568032
     94 C29         0.5600   -3.4090    1.3440 c3        1 MOL      0.371204
     95 C30         1.5510   -3.7490    0.2780 c         1 MOL      0.409387
     96 O16         1.7180   -4.9190   -0.0600 o         1 MOL     -0.566233
     97 C31         1.0300   -3.6220    2.7420 c3        1 MOL     -0.013006
     98 C32         0.0450   -3.1160    3.8090 c3        1 MOL      0.032547
     99 C33         2.4330   -3.2730    2.9830 c3        1 MOL     -0.114183
    100 C34         0.0400   -1.5420    4.0540 c3        1 MOL      0.074881
    101 H42        -0.6600   -5.0900    1.2150 hn        1 MOL      0.279920
    102 H43         0.3280   -2.3530    1.2610 h1        1 MOL     -0.079013
    103 H44         0.9340   -4.7080    2.7900 hc        1 MOL     -0.011358
    104 H45         0.2110   -3.6040    4.7670 hc        1 MOL     -0.002468
    105 H46        -0.9850   -3.3760    3.5870 hc        1 MOL     -0.002468
    106 H47         3.1020   -3.8520    2.3430 hc        1 MOL      0.014359
    107 H48         2.4840   -2.2350    2.6520 hc        1 MOL      0.014359
    108 H49         2.6990   -3.3450    4.0390 hc        1 MOL      0.014359
    109 H50         1.0380   -1.2430    4.3850 hc        1 MOL     -0.023659
    110 H51        -0.2080   -1.0170    3.1400 hc        1 MOL     -0.023659
    111 H52        -0.7620   -1.3480    4.7620 hc        1 MOL     -0.023659
    112 N10         2.1830   -2.8360   -0.4030 n         1 MOL     -0.183691
    113 C35         3.3230   -3.0470   -1.3960 c3        1 MOL      0.092275
    114 C36         4.5810   -2.9540   -0.6750 c         1 MOL      0.298007
    115 O17         4.6150   -2.5080    0.4210 o         1 MOL     -0.181884
    116 C37         3.3160   -2.0510   -2.5570 c3        1 MOL      0.101218
    117 C38         1.9470   -1.7880   -3.1870 c3        1 MOL     -0.389013
    118 O18         3.8640   -0.8420   -2.1830 oh        1 MOL     -0.319530
    119 H53         1.9680   -1.8610   -0.2540 hn        1 MOL      0.098629
    120 H54         3.2510   -4.0630   -1.7960 h1        1 MOL      0.070083
    121 H55         3.9200   -2.4540   -3.3730 h1        1 MOL      0.028937
    122 H56         3.9480   -0.2760   -2.9530 ho        1 MOL      0.323054
    123 H57         2.0820   -1.0370   -3.9670 hc        1 MOL      0.111878
    124 H58         1.4730   -2.6700   -3.6180 hc        1 MOL      0.111878
    125 H59         1.2750   -1.3450   -2.4540 hc        1 MOL      0.111878
    126 N11         5.7030   -3.1620   -1.4170 n         1 MOL     -0.236443
    127 C39         7.0110   -3.0600   -0.7970 c3        1 MOL     -0.325857
    128 C40         7.4340   -1.5980   -0.4480 c         1 MOL      0.493641
    129 O19         8.1830   -1.3430    0.4760 o         1 MOL     -0.500168
    130 C41         8.1510   -3.7090   -1.6330 c3        1 MOL      0.472353
    131 C42         8.3800   -5.2370   -1.5650 c3        1 MOL     -0.397757
    132 O20         8.1860   -3.2310   -2.9900 oh        1 MOL     -0.633160
    133 H60         5.6170   -3.4770   -2.3820 hn        1 MOL      0.195894
    134 H61         7.0900   -3.5700    0.1590 h1        1 MOL      0.162258
    135 H62         9.0550   -3.2910   -1.1830 h1        1 MOL      0.044814
    136 H63         7.4280   -3.6260   -3.4320 ho        1 MOL      0.386401
    137 H64         8.5730   -5.4300   -0.5180 hc        1 MOL      0.103247
    138 H65         7.5190   -5.8720   -1.8130 hc        1 MOL      0.103247
    139 H66         9.1160   -5.5100   -2.3230 hc        1 MOL      0.103247
    140 N12         6.6980   -0.6310   -1.0430 n         1 MOL     -0.243028
    141 C43         6.7250    0.7910   -0.6430 c3        1 MOL     -0.139388
    142 C44         6.0230    1.0490    0.6860 c         1 MOL      0.323609
    143 O21         6.6420    1.6230    1.6030 o         1 MOL     -0.492108
    144 C45         6.2070    1.7370   -1.7760 c3        1 MOL      0.000216
    145 C46         6.2120    3.2590   -1.4200 c3        1 MOL      0.040916
    146 C47         5.6000    4.2180   -2.4900 c3        1 MOL     -0.139262
    147 C48         6.3430    4.0960   -3.8740 c3        1 MOL      0.028955
    148 N13         7.7930    4.3490   -3.7980 n4        1 MOL     -0.404898
    149 H67         6.0400   -0.9840   -1.7330 hn        1 MOL      0.074871
    150 H68         7.8030    0.9690   -0.5660 h1        1 MOL      0.147726
    151 H69         5.1720    1.4670   -2.0050 hc        1 MOL      0.017284
    152 H70         6.9080    1.5430   -2.5920 hc        1 MOL      0.017284
    153 H71         7.2730    3.4240   -1.2680 hc        1 MOL      0.001052
    154 H72         5.6280    3.3650   -0.5030 hc        1 MOL      0.001052
    155 H73         5.6020    5.2320   -2.0680 hc        1 MOL      0.064800
    156 H74         4.5590    3.9380   -2.6710 hc        1 MOL      0.064800
    157 H75         5.8830    4.8480   -4.5160 hx        1 MOL      0.090448
    158 H76         6.0250    3.1510   -4.2920 hx        1 MOL      0.090448
    159 H77         7.9810    5.2570   -3.3940 hn        1 MOL      0.314546
    160 H78         8.2520    3.6560   -3.2270 hn        1 MOL      0.314546
    161 H79         8.1810    4.2420   -4.7250 hn        1 MOL      0.314546
    162 N14         4.7530    0.6530    0.8200 n         1 MOL     -0.086322
    163 C49         3.9250    0.8510    2.0800 c3        1 MOL     -0.203591
    164 C50         4.4950   -0.0060    3.1920 c         1 MOL      0.456814
    165 O22         4.5960    0.4820    4.3080 o         1 MOL     -0.547446
    166 C51         2.5090    0.4520    1.6290 c3        1 MOL      0.338627
    167 C52         1.9570    1.3810    0.5350 c3        1 MOL     -0.073489
    168 C53         0.6900    0.8390   -0.0460 c         1 MOL      0.698824
    169 O23        -0.1490    1.6760   -0.5250 o         1 MOL     -0.671885
    170 O24         0.5700   -0.3550   -0.3510 o         1 MOL     -0.671885
    171 H80         4.3950    0.1400    0.0210 hn        1 MOL      0.168800
    172 H81         4.0040    1.8900    2.3980 h1        1 MOL      0.126796
    173 H82         1.8340    0.5830    2.4740 hc        1 MOL     -0.010316
    174 H83         2.5650   -0.5910    1.3380 hc        1 MOL     -0.010316
    175 H84         2.6550    1.4330   -0.3060 hc        1 MOL     -0.052445
    176 H85         1.8300    2.3590    0.9980 hc        1 MOL     -0.052445
    177 N15         4.9910   -1.2460    2.9640 n         1 MOL      0.140115
    178 C54         5.8540   -2.0050    3.8440 c3        1 MOL     -0.466913
    179 H86         5.6590   -1.7200    4.8780 h1        1 MOL      0.148086
    180 H87         5.6560   -3.0700    3.7180 h1        1 MOL      0.148086
    181 H88         6.8960   -1.7980    3.6000 h1        1 MOL      0.148086
    182 H89         4.7590   -1.6870    2.0900 hn        1 MOL     -0.070429
    183 Ca1        -1.9090   -0.4050   -1.1940 Ca        1 MOL      1.694163
    184 O25        -1.1960   -2.6040   -2.5660 oh        1 MOL     -0.820443
    185 H90        -1.3440   -3.4890   -2.2520 ho        1 MOL      0.394214
    186 H91        -1.2620   -2.6810   -3.5210 ho        1 MOL      0.394214
    187 O26        -0.7040    0.1840   -3.5140 oh        1 MOL     -0.820443
    188 H92        -0.0310    0.1900   -4.1960 ho        1 MOL      0.394214
    189 H93        -1.4720    0.5780   -3.9350 ho        1 MOL      0.394214
@<TRIPOS>BOND
     1    1    2 1   
     2    1    4 1   
     3    1    5 1   
     4    1    6 1   
     5    2    3 2   
     6    2    7 1   
     7    7    8 1   
     8    7   15 1   
     9    8    9 1   
    10    8   11 1   
    11    8   16 1   
    12    9   10 2   
    13    9   19 1   
    14   11   12 1   
    15   11   17 1   
    16   11   18 1   
    17   12   13 1   
    18   12   14 1   
    19   19   20 1   
    20   19   28 1   
    21   20   21 1   
    22   20   23 1   
    23   20   29 1   
    24   21   22 2   
    25   21   41 1   
    26   23   24 1   
    27   23   30 1   
    28   23   31 1   
    29   24   25 1   
    30   24   32 1   
    31   24   33 1   
    32   25   26 1   
    33   25   34 1   
    34   25   35 1   
    35   26   27 1   
    36   26   36 1   
    37   26   37 1   
    38   27   38 1   
    39   27   39 1   
    40   27   40 1   
    41   41   42 1   
    42   41   49 1   
    43   42   43 1   
    44   42   45 1   
    45   42   50 1   
    46   43   44 2   
    47   43   53 1   
    48   45   46 1   
    49   45   51 1   
    50   45   52 1   
    51   46   47 1   
    52   46   48 1   
    53   53   54 1   
    54   53   57 1   
    55   54   55 1   
    56   54   58 1   
    57   54   59 1   
    58   55   56 2   
    59   55   60 1   
    60   60   61 1   
    61   60   68 1   
    62   61   62 1   
    63   61   64 1   
    64   61   69 1   
    65   62   63 2   
    66   62   72 1   
    67   64   65 1   
    68   64   70 1   
    69   64   71 1   
    70   65   66 1   
    71   65   67 1   
    72   72   73 1   
    73   72   76 1   
    74   73   74 1   
    75   73   77 1   
    76   73   78 1   
    77   74   75 2   
    78   74   79 1   
    79   79   80 1   
    80   79   86 1   
    81   80   81 1   
    82   80   83 1   
    83   80   87 1   
    84   81   82 2   
    85   81   93 1   
    86   83   84 1   
    87   83   85 1   
    88   83   88 1   
    89   84   90 1   
    90   84   91 1   
    91   84   92 1   
    92   85   89 1   
    93   93   94 1   
    94   93  101 1   
    95   94   95 1   
    96   94   97 1   
    97   94  102 1   
    98   95   96 2   
    99   95  112 1   
   100   97   98 1   
   101   97   99 1   
   102   97  103 1   
   103   98  100 1   
   104   98  104 1   
   105   98  105 1   
   106   99  106 1   
   107   99  107 1   
   108   99  108 1   
   109  100  109 1   
   110  100  110 1   
   111  100  111 1   
   112  112  113 1   
   113  112  119 1   
   114  113  114 1   
   115  113  116 1   
   116  113  120 1   
   117  114  115 2   
   118  114  126 1   
   119  116  117 1   
   120  116  118 1   
   121  116  121 1   
   122  117  123 1   
   123  117  124 1   
   124  117  125 1   
   125  118  122 1   
   126  126  127 1   
   127  126  133 1   
   128  127  128 1   
   129  127  130 1   
   130  127  134 1   
   131  128  129 2   
   132  128  140 1   
   133  130  131 1   
   134  130  132 1   
   135  130  135 1   
   136  131  137 1   
   137  131  138 1   
   138  131  139 1   
   139  132  136 1   
   140  140  141 1   
   141  140  149 1   
   142  141  142 1   
   143  141  144 1   
   144  141  150 1   
   145  142  143 2   
   146  142  162 1   
   147  144  145 1   
   148  144  151 1   
   149  144  152 1   
   150  145  146 1   
   151  145  153 1   
   152  145  154 1   
   153  146  147 1   
   154  146  155 1   
   155  146  156 1   
   156  147  148 1   
   157  147  157 1   
   158  147  158 1   
   159  148  159 1   
   160  148  160 1   
   161  148  161 1   
   162  162  163 1   
   163  162  171 1   
   164  163  164 1   
   165  163  166 1   
   166  163  172 1   
   167  164  165 2   
   168  164  177 1   
   169  166  167 1   
   170  166  173 1   
   171  166  174 1   
   172  167  168 1   
   173  167  175 1   
   174  167  176 1   
   175  168  169 1   
   176  168  170 1   
   177  177  178 1   
   178  177  182 1   
   179  178  179 1   
   180  178  180 1   
   181  178  181 1   
   182  184  185 1   
   183  184  186 1   
   184  187  188 1   
   185  187  189 1   
@<TRIPOS>SUBSTRUCTURE
     1 MOL         1 TEMP              0 ****  ****    0 ROOT
