@<TRIPOS>MOLECULE
MOL
  179   176     1     0     0
SMALL
resp


@<TRIPOS>ATOM
      1 C1          2.2460    1.4000    6.0090 c3        1 MOL     -0.324928
      2 C2          1.7930    1.6670    4.5200 c         1 MOL      0.725422
      3 O1          2.6010    1.7760    3.5720 o         1 MOL     -0.617266
      4 H1          1.3740    1.1520    6.6150 hc        1 MOL      0.087156
      5 H2          2.9510    0.5690    6.0310 hc        1 MOL      0.087156
      6 H3          2.7250    2.2930    6.4100 hc        1 MOL      0.087156
      7 N1          0.4850    1.7340    4.2830 n         1 MOL     -0.650600
      8 C3         -0.1240    1.8690    2.9660 c3        1 MOL      0.154150
      9 C4          0.2340    3.3010    2.5370 c         1 MOL      0.616337
     10 O2         -0.1400    4.2670    3.1850 o         1 MOL     -0.565470
     11 C5         -1.6580    1.5070    2.9650 c3        1 MOL     -0.349678
     12 C6         -2.4270    1.6560    1.7030 c         1 MOL      0.778414
     13 O3         -3.6760    1.6600    1.7330 o         1 MOL     -0.690438
     14 O4         -1.8570    1.9960    0.6310 o         1 MOL     -0.690438
     15 H4         -0.0180    1.5470    5.1380 hn        1 MOL      0.335691
     16 H5          0.3660    1.2100    2.2610 h1        1 MOL      0.087067
     17 H6         -2.1510    2.1170    3.7250 hc        1 MOL      0.097235
     18 H7         -1.6980    0.4980    3.3600 hc        1 MOL      0.097235
     19 N2          0.9130    3.3870    1.3700 n         1 MOL     -0.150881
     20 C7          1.5370    4.6560    0.9890 c3        1 MOL     -0.500804
     21 C8          0.5130    5.5770    0.3390 c         1 MOL      0.785664
     22 O5          0.6410    6.7990    0.4910 o         1 MOL     -0.617133
     23 C9          2.7070    4.3180    0.0530 c3        1 MOL      0.259677
     24 C10         3.5770    5.5060   -0.2200 c3        1 MOL     -0.067224
     25 C11         4.7960    5.0770   -1.1620 c3        1 MOL      0.018282
     26 C12         5.8410    6.2560   -1.2620 c3        1 MOL     -0.137397
     27 N3          5.3570    7.3930   -2.0820 n4        1 MOL     -0.272905
     28 H8          0.9330    2.6080    0.7230 hn        1 MOL      0.186820
     29 H9          1.8450    5.0870    1.9420 h1        1 MOL      0.182063
     30 H10         2.3800    3.9570   -0.9270 hc        1 MOL      0.014091
     31 H11         3.3100    3.5190    0.4860 hc        1 MOL      0.014091
     32 H12         3.9920    5.9040    0.7070 hc        1 MOL      0.014727
     33 H13         2.9150    6.2460   -0.6640 hc        1 MOL      0.014727
     34 H14         4.4380    4.7760   -2.1430 hc        1 MOL      0.025878
     35 H15         5.1890    4.1830   -0.6860 hc        1 MOL      0.025878
     36 H16         6.7430    5.8180   -1.6810 hx        1 MOL      0.139151
     37 H17         5.9730    6.6810   -0.2690 hx        1 MOL      0.139151
     38 H18         4.5480    7.8870   -1.7390 hn        1 MOL      0.308965
     39 H19         6.1580    8.0040   -2.2340 hn        1 MOL      0.308965
     40 H20         4.9790    7.0950   -2.9720 hn        1 MOL      0.308965
     41 N4         -0.5010    5.0170   -0.3140 n         1 MOL     -0.474764
     42 C13        -1.4220    5.6870   -1.2910 c3        1 MOL      0.205346
     43 C14        -2.9080    5.5150   -0.8900 c         1 MOL      0.345953
     44 O6         -3.7330    6.3280   -1.3530 o         1 MOL     -0.527487
     45 C15        -1.2630    4.9480   -2.5790 c3        1 MOL     -0.240657
     46 C16        -1.3000    3.3710   -2.4690 c         1 MOL      0.729947
     47 O7         -0.1970    2.8110   -2.4460 o         1 MOL     -0.681451
     48 O8         -2.3680    2.7330   -2.3830 o         1 MOL     -0.681451
     49 H21        -0.5830    4.0170   -0.3490 hn        1 MOL      0.079870
     50 H22        -1.1640    6.7390   -1.4550 h1        1 MOL      0.064298
     51 H23        -0.2670    5.2520   -2.8760 hc        1 MOL      0.043484
     52 H24        -1.9650    5.3620   -3.2970 hc        1 MOL      0.043484
     53 N5         -3.1450    4.5330   -0.0250 n         1 MOL     -0.087130
     54 C17        -4.4190    4.5060    0.7010 c3        1 MOL     -0.289919
     55 C18        -5.5240    3.6090    0.0860 c         1 MOL      0.623787
     56 O9         -6.6670    3.9170    0.3370 o         1 MOL     -0.574271
     57 H25        -2.4140    3.8760    0.2120 hn        1 MOL      0.191803
     58 H26        -4.8540    5.4890    0.8620 h1        1 MOL      0.137097
     59 H27        -4.2240    4.0490    1.6700 h1        1 MOL      0.137097
     60 N6         -5.1740    2.6760   -0.8510 n         1 MOL     -0.215642
     61 C19        -6.0680    1.7430   -1.5270 c3        1 MOL     -0.206685
     62 C20        -6.5760    0.5890   -0.5440 c         1 MOL      0.366487
     63 O10        -7.4080   -0.1980   -0.9600 o         1 MOL     -0.453150
     64 C21        -5.4680    1.1880   -2.7490 c3        1 MOL      0.081795
     65 C22        -4.6020   -0.0110   -2.5040 c         1 MOL      0.444906
     66 N7         -4.6750   -1.0340   -3.3680 n         1 MOL     -0.723574
     67 O11        -3.8160   -0.0790   -1.5370 o         1 MOL     -0.322657
     68 H28        -4.1940    2.5830   -1.0390 hn        1 MOL      0.065622
     69 H29        -6.9480    2.3650   -1.7020 h1        1 MOL      0.155192
     70 H30        -4.8700    1.7680   -3.4550 hc        1 MOL      0.040811
     71 H31        -6.3510    0.9880   -3.3610 hc        1 MOL      0.040811
     72 H32        -5.3580   -1.1430   -4.1130 hn        1 MOL      0.350331
     73 H33        -4.0650   -1.8230   -3.2550 hn        1 MOL      0.350331
     74 N8         -6.1460    0.5370    0.7370 n         1 MOL     -0.221472
     75 C23        -6.5380   -0.4890    1.7410 c3        1 MOL     -0.084634
     76 C24        -5.7760   -1.7530    1.7800 c         1 MOL      0.366489
     77 O12        -6.2580   -2.7810    2.2750 o         1 MOL     -0.521067
     78 H34        -5.4450    1.1920    1.0310 hn        1 MOL      0.239797
     79 H35        -7.6140   -0.6620    1.6400 h1        1 MOL      0.107076
     80 H36        -6.5840    0.0490    2.6980 h1        1 MOL      0.107076
     81 N9         -4.6560   -1.8320    1.0770 n         1 MOL     -0.095477
     82 C25        -3.6730   -2.9270    0.8560 c3        1 MOL      0.084789
     83 C26        -2.1680   -2.4000    1.0020 c         1 MOL      0.424499
     84 O13        -1.8630   -1.2350    0.6600 o         1 MOL     -0.593266
     85 C27        -3.9240   -3.6010   -0.5250 c3        1 MOL      0.245435
     86 C28        -5.2820   -4.3470   -0.5370 ca        1 MOL     -0.437016
     87 C29        -6.4430   -3.6430   -0.8280 ca        1 MOL      0.192855
     88 C30        -5.3420   -5.6130   -0.0550 ca        1 MOL      0.192855
     89 C31        -7.6550   -4.3540   -0.9120 ca        1 MOL     -0.435565
     90 C32        -6.5230   -6.3240   -0.1400 ca        1 MOL     -0.435565
     91 C33        -7.7050   -5.7040   -0.5490 ca        1 MOL      0.513576
     92 O14        -8.8640   -6.4440   -0.5670 oh        1 MOL     -0.524286
     93 H37        -4.4150   -0.9270    0.6890 hn        1 MOL      0.062009
     94 H38        -3.8930   -3.6410    1.6560 h1        1 MOL      0.030041
     95 H39        -3.0580   -4.2590   -0.5980 hc        1 MOL     -0.047159
     96 H40        -3.8730   -2.9350   -1.3820 hc        1 MOL     -0.047159
     97 H41        -6.4250   -2.6330   -1.1950 ha        1 MOL      0.039131
     98 H42        -4.4370   -6.1120    0.2460 ha        1 MOL      0.039131
     99 H43        -8.6360   -3.9200   -1.0590 ha        1 MOL      0.162045
    100 H44        -6.5720   -7.3780    0.0790 ha        1 MOL      0.162045
    101 H45        -8.8100   -7.3790   -0.3640 ho        1 MOL      0.358849
    102 N10        -1.2420   -3.2330    1.5150 n         1 MOL     -0.304056
    103 C34         0.2260   -3.0120    1.4580 c3        1 MOL     -0.045695
    104 C35         0.9220   -3.9140    0.3900 c         1 MOL      0.620922
    105 O15         0.5640   -5.0430    0.2410 o         1 MOL     -0.579060
    106 C36         0.9690   -3.2670    2.8360 c3        1 MOL      0.133447
    107 C37         0.2350   -2.5610    3.9950 c3        1 MOL      0.207308
    108 C38         2.3650   -2.7010    2.8810 c3        1 MOL     -0.450689
    109 C39         0.4740   -3.0970    5.4060 c3        1 MOL     -0.235313
    110 H46        -1.5520   -4.1280    1.8840 hn        1 MOL      0.247984
    111 H47         0.3870   -1.9830    1.1370 h1        1 MOL      0.072803
    112 H48         1.0020   -4.3430    3.0170 hc        1 MOL      0.001035
    113 H49        -0.8400   -2.6460    3.8290 hc        1 MOL     -0.045753
    114 H50         0.4010   -1.4820    4.0520 hc        1 MOL     -0.045753
    115 H51         2.7540   -2.7700    3.8910 hc        1 MOL      0.105480
    116 H52         2.9760   -3.1150    2.0760 hc        1 MOL      0.105480
    117 H53         2.2060   -1.6440    2.6700 hc        1 MOL      0.105480
    118 H54         1.5230   -2.9980    5.7080 hc        1 MOL      0.050932
    119 H55        -0.0990   -2.4680    6.0870 hc        1 MOL      0.050932
    120 H56         0.1490   -4.1300    5.4660 hc        1 MOL      0.050932
    121 N11         1.9470   -3.3910   -0.2720 n         1 MOL     -0.354135
    122 C40         2.7990   -4.1340   -1.2380 c3        1 MOL      0.078127
    123 C41         4.3090   -4.0520   -0.9150 c         1 MOL      0.309613
    124 O16         4.6910   -3.2070   -0.1230 o         1 MOL     -0.299550
    125 C42         2.4530   -3.8690   -2.7540 c3        1 MOL      0.030753
    126 O17         2.9650   -2.6290   -3.1480 oh        1 MOL     -0.558838
    127 H57         2.1380   -2.4280   -0.0410 hn        1 MOL      0.228029
    128 H58         2.5870   -5.1980   -1.1530 h1        1 MOL      0.039987
    129 H59         1.3710   -3.9730   -2.8750 h1        1 MOL      0.058734
    130 H60         2.8650   -4.6930   -3.3340 h1        1 MOL      0.058734
    131 H61         2.2830   -2.0370   -2.8400 ho        1 MOL      0.378034
    132 N12         5.1730   -4.8760   -1.5660 n         1 MOL     -0.293277
    133 C43         6.6340   -5.0270   -1.3380 c3        1 MOL     -0.010088
    134 C44         7.2920   -3.5920   -1.1090 c         1 MOL      0.473214
    135 O18         7.8000   -3.2520   -0.0640 o         1 MOL     -0.481973
    136 C45         7.2810   -5.8190   -2.4340 c3        1 MOL     -0.105830
    137 H62         4.8370   -5.5780   -2.2080 hn        1 MOL      0.251085
    138 H63         6.6460   -5.5910   -0.3990 h1        1 MOL      0.077386
    139 H64         7.2880   -5.1530   -3.2970 hc        1 MOL      0.047670
    140 H65         8.2900   -6.1420   -2.2140 hc        1 MOL      0.047670
    141 H66         6.7620   -6.7290   -2.7320 hc        1 MOL      0.047670
    142 N13         7.1010   -2.7360   -2.1300 n         1 MOL     -0.385966
    143 C46         7.5980   -1.3450   -2.1520 c3        1 MOL      0.022608
    144 C47         7.0700   -0.4340   -1.0260 c         1 MOL      0.356181
    145 O19         7.8470    0.4550   -0.5940 o         1 MOL     -0.513934
    146 C48         7.2770   -0.7060   -3.5040 c3        1 MOL     -0.387802
    147 H67         6.5460   -3.0580   -2.9160 hn        1 MOL      0.288868
    148 H68         8.6920   -1.3650   -2.1690 h1        1 MOL      0.126442
    149 H69         6.2090   -0.5690   -3.6040 hc        1 MOL      0.112591
    150 H70         7.8360    0.2200   -3.6430 hc        1 MOL      0.112591
    151 H71         7.5770   -1.2370   -4.4010 hc        1 MOL      0.112591
    152 N14         5.8500   -0.6870   -0.4930 n         1 MOL     -0.014596
    153 C49         5.2230    0.2220    0.4980 c3        1 MOL     -0.199964
    154 C50         5.6970   -0.2270    1.9420 c         1 MOL      0.506585
    155 O20         6.2140    0.5470    2.7630 o         1 MOL     -0.518945
    156 C51         3.7180    0.1370    0.4060 c3        1 MOL      0.371243
    157 C52         3.1450    0.5510   -0.9180 c3        1 MOL      0.028690
    158 C53         1.6200    0.3290   -0.9370 c         1 MOL      0.584995
    159 O21         0.8780    0.9460   -0.1010 o         1 MOL     -0.690240
    160 O22         1.1970   -0.5080   -1.7880 o         1 MOL     -0.690240
    161 H72         5.3660   -1.4790   -0.8800 hn        1 MOL      0.121524
    162 H73         5.4800    1.2630    0.3020 h1        1 MOL      0.095462
    163 H74         3.2970    0.6590    1.2600 hc        1 MOL     -0.090274
    164 H75         3.4560   -0.9040    0.5610 hc        1 MOL     -0.090274
    165 H76         3.6010   -0.0300   -1.7300 hc        1 MOL     -0.065402
    166 H77         3.4690    1.5700   -1.1360 hc        1 MOL     -0.065402
    167 N15         5.6530   -1.5790    2.1970 n         1 MOL     -0.171949
    168 C54         6.3980   -2.2350    3.2450 c3        1 MOL     -0.312229
    169 H78         7.3900   -1.7880    3.3180 h1        1 MOL      0.118551
    170 H79         5.8750   -2.1140    4.1940 h1        1 MOL      0.118551
    171 H80         6.4940   -3.2950    3.0140 h1        1 MOL      0.118551
    172 H81         5.3620   -2.1760    1.4320 hn        1 MOL      0.157193
    173 Ca1        -1.2900    0.5130   -1.5010 Ca        1 MOL      1.722918
    174 O23        -1.3010   -1.9920   -2.3750 oh        1 MOL     -0.977903
    175 H82        -0.7680   -1.8030   -3.1460 ho        1 MOL      0.459465
    176 H83        -1.4360   -2.9410   -2.4140 ho        1 MOL      0.459465
    177 O24        -1.2100    0.5360   -4.2490 oh        1 MOL     -0.977903
    178 H84        -0.8810   -0.0880   -4.9000 ho        1 MOL      0.459465
    179 H85        -1.5430    1.2680   -4.7530 ho        1 MOL      0.459465
@<TRIPOS>BOND
     1    1    2 1   
     2    1    4 1   
     3    1    5 1   
     4    1    6 1   
     5    2    3 2   
     6    2    7 1   
     7    7    8 1   
     8    7   15 1   
     9    8    9 1   
    10    8   11 1   
    11    8   16 1   
    12    9   10 2   
    13    9   19 1   
    14   11   12 1   
    15   11   17 1   
    16   11   18 1   
    17   12   13 1   
    18   12   14 1   
    19   19   20 1   
    20   19   28 1   
    21   20   21 1   
    22   20   23 1   
    23   20   29 1   
    24   21   22 2   
    25   21   41 1   
    26   23   24 1   
    27   23   30 1   
    28   23   31 1   
    29   24   25 1   
    30   24   32 1   
    31   24   33 1   
    32   25   26 1   
    33   25   34 1   
    34   25   35 1   
    35   26   27 1   
    36   26   36 1   
    37   26   37 1   
    38   27   38 1   
    39   27   39 1   
    40   27   40 1   
    41   41   42 1   
    42   41   49 1   
    43   42   43 1   
    44   42   45 1   
    45   42   50 1   
    46   43   44 2   
    47   43   53 1   
    48   45   46 1   
    49   45   51 1   
    50   45   52 1   
    51   46   47 1   
    52   46   48 1   
    53   53   54 1   
    54   53   57 1   
    55   54   55 1   
    56   54   58 1   
    57   54   59 1   
    58   55   56 2   
    59   55   60 1   
    60   60   61 1   
    61   60   68 1   
    62   61   62 1   
    63   61   64 1   
    64   61   69 1   
    65   62   63 2   
    66   62   74 1   
    67   64   65 1   
    68   64   70 1   
    69   64   71 1   
    70   65   66 1   
    71   65   67 2   
    72   66   72 1   
    73   66   73 1   
    74   74   75 1   
    75   74   78 1   
    76   75   76 1   
    77   75   79 1   
    78   75   80 1   
    79   76   77 2   
    80   76   81 1   
    81   81   82 1   
    82   81   93 1   
    83   82   83 1   
    84   82   85 1   
    85   82   94 1   
    86   83   84 2   
    87   83  102 1   
    88   85   86 1   
    89   85   95 1   
    90   85   96 1   
    91   86   87 ar  
    92   86   88 ar  
    93   87   89 ar  
    94   87   97 1   
    95   88   90 ar  
    96   88   98 1   
    97   89   91 ar  
    98   89   99 1   
    99   90   91 ar  
   100   90  100 1   
   101   91   92 1   
   102   92  101 1   
   103  102  103 1   
   104  102  110 1   
   105  103  104 1   
   106  103  106 1   
   107  103  111 1   
   108  104  105 2   
   109  104  121 1   
   110  106  107 1   
   111  106  108 1   
   112  106  112 1   
   113  107  109 1   
   114  107  113 1   
   115  107  114 1   
   116  108  115 1   
   117  108  116 1   
   118  108  117 1   
   119  109  118 1   
   120  109  119 1   
   121  109  120 1   
   122  121  122 1   
   123  121  127 1   
   124  122  123 1   
   125  122  125 1   
   126  122  128 1   
   127  123  124 2   
   128  123  132 1   
   129  125  126 1   
   130  125  129 1   
   131  125  130 1   
   132  126  131 1   
   133  132  133 1   
   134  132  137 1   
   135  133  134 1   
   136  133  136 1   
   137  133  138 1   
   138  134  135 2   
   139  134  142 1   
   140  136  139 1   
   141  136  140 1   
   142  136  141 1   
   143  142  143 1   
   144  142  147 1   
   145  143  144 1   
   146  143  146 1   
   147  143  148 1   
   148  144  145 2   
   149  144  152 1   
   150  146  149 1   
   151  146  150 1   
   152  146  151 1   
   153  152  153 1   
   154  152  161 1   
   155  153  154 1   
   156  153  156 1   
   157  153  162 1   
   158  154  155 2   
   159  154  167 1   
   160  156  157 1   
   161  156  163 1   
   162  156  164 1   
   163  157  158 1   
   164  157  165 1   
   165  157  166 1   
   166  158  159 1   
   167  158  160 1   
   168  167  168 1   
   169  167  172 1   
   170  168  169 1   
   171  168  170 1   
   172  168  171 1   
   173  174  175 1   
   174  174  176 1   
   175  177  178 1   
   176  177  179 1   
@<TRIPOS>SUBSTRUCTURE
     1 MOL         1 TEMP              0 ****  ****    0 ROOT
