@<TRIPOS>MOLECULE
MOL
  175   173     1     0     0
SMALL
resp


@<TRIPOS>ATOM
      1 C1         -0.5220   -3.4480    5.7320 c3        1 MOL     -0.353659
      2 C2          0.0870   -3.4350    4.3540 c         1 MOL      0.734938
      3 O1         -0.6120   -3.3070    3.3780 o         1 MOL     -0.540849
      4 H1         -0.5360   -2.4340    6.1330 hc        1 MOL      0.084669
      5 H2         -1.5410   -3.8290    5.6760 hc        1 MOL      0.084669
      6 H3          0.0700   -4.0880    6.3860 hc        1 MOL      0.084669
      7 N1          1.3620   -3.6660    4.1940 n         1 MOL     -0.638614
      8 C3          2.0190   -3.3910    2.8730 c3        1 MOL      0.239479
      9 C4          2.1620   -4.6150    1.8850 c         1 MOL      0.592785
     10 O2          2.4980   -5.7470    2.3610 o         1 MOL     -0.594062
     11 C5          3.3480   -2.7090    3.0710 c3        1 MOL     -0.441708
     12 C6          4.0830   -2.4520    1.8210 c         1 MOL      0.806089
     13 O3          3.4940   -1.9280    0.8290 o         1 MOL     -0.656582
     14 O4          5.1750   -2.9820    1.7070 o         1 MOL     -0.656582
     15 H4          2.0070   -3.6740    4.9830 hn        1 MOL      0.326914
     16 H5          1.3810   -2.6450    2.4010 h1        1 MOL      0.003671
     17 H6          3.8580   -3.3970    3.7440 hc        1 MOL      0.069363
     18 H7          3.2350   -1.7840    3.6310 hc        1 MOL      0.069363
     19 N2          1.8610   -4.5140    0.5810 n         1 MOL     -0.443638
     20 C7          2.1000   -5.5850   -0.4660 c3        1 MOL      0.231713
     21 C8          3.1240   -5.1820   -1.5680 c         1 MOL      0.544073
     22 O5          3.2620   -5.9730   -2.4980 o         1 MOL     -0.579674
     23 C9          0.7620   -6.1030   -0.8710 c3        1 MOL     -0.228141
     24 H8          1.4100   -3.7260    0.1310 hn        1 MOL      0.277973
     25 H9          2.6900   -6.3520    0.0200 h1        1 MOL      0.020635
     26 H10         0.8680   -6.9680   -1.5160 hc        1 MOL      0.051057
     27 H11         0.0550   -6.2860   -0.0540 hc        1 MOL      0.051057
     28 H12         0.3660   -5.2770   -1.4620 hc        1 MOL      0.051057
     29 N3          3.8480   -4.0680   -1.4260 n         1 MOL     -0.445037
     30 C10         4.7360   -3.6450   -2.5280 c3        1 MOL      0.107865
     31 C11         6.0330   -2.8930   -2.1310 c         1 MOL      0.343374
     32 O6          6.9710   -2.7510   -2.9240 o         1 MOL     -0.560315
     33 C12         3.9810   -2.8030   -3.5280 c3        1 MOL     -0.162923
     34 C13         3.2510   -1.5960   -2.8460 c         1 MOL      0.690429
     35 O7          3.8570   -0.8700   -1.9870 o         1 MOL     -0.706751
     36 O8          2.0390   -1.3460   -3.1320 o         1 MOL     -0.706751
     37 H13         3.5970   -3.4890   -0.6370 hn        1 MOL      0.255084
     38 H14         5.0970   -4.4550   -3.1600 h1        1 MOL      0.077382
     39 H15         3.2900   -3.4540   -4.0450 hc        1 MOL      0.051050
     40 H16         4.5560   -2.3140   -4.3130 hc        1 MOL      0.051050
     41 N4          6.0720   -2.2830   -0.9040 n         1 MOL     -0.027874
     42 C14         7.1820   -1.5220   -0.3810 c3        1 MOL     -0.175833
     43 C15         7.2620   -0.0740   -0.8680 c         1 MOL      0.600279
     44 O9          8.2990    0.4990   -0.6280 o         1 MOL     -0.630240
     45 H17         5.2700   -2.4340   -0.3080 hn        1 MOL      0.040199
     46 H18         8.1730   -1.9460   -0.5250 h1        1 MOL      0.085940
     47 H19         7.0710   -1.3720    0.6990 h1        1 MOL      0.085940
     48 N5          6.2520    0.4920   -1.5820 n         1 MOL     -0.382525
     49 C16         6.2920    1.8580   -2.2080 c3        1 MOL      0.155376
     50 C17         6.5300    3.0040   -1.1990 c         1 MOL      0.442360
     51 O10         6.8720    4.1420   -1.6180 o         1 MOL     -0.563900
     52 C18         5.1640    2.0730   -3.2170 c3        1 MOL     -0.273618
     53 C19         3.8090    2.0390   -2.5080 c         1 MOL      0.639139
     54 N6          2.7770    1.9760   -3.3450 n         1 MOL     -0.612669
     55 O11         3.5930    2.0860   -1.3180 o         1 MOL     -0.605533
     56 H20         5.4480   -0.1130   -1.7360 hn        1 MOL      0.223946
     57 H21         7.2480    1.9160   -2.7440 h1        1 MOL      0.040728
     58 H22         5.2660    1.2130   -3.8730 hc        1 MOL      0.088233
     59 H23         5.4400    2.9860   -3.7340 hc        1 MOL      0.088233
     60 H24         2.9760    2.0410   -4.3300 hn        1 MOL      0.310517
     61 H25         1.8400    1.7710   -3.0060 hn        1 MOL      0.310517
     62 N7          6.3260    2.7730    0.0530 n         1 MOL     -0.211945
     63 C20         6.3340    3.9020    0.9860 c3        1 MOL     -0.178126
     64 C21         4.9810    4.6580    1.3280 c         1 MOL      0.634100
     65 O12         5.1090    5.7870    1.7780 o         1 MOL     -0.580569
     66 H26         6.0120    1.8840    0.4240 hn        1 MOL      0.272887
     67 H27         7.1420    4.5770    0.7150 h1        1 MOL      0.074810
     68 H28         6.5790    3.4120    1.9320 h1        1 MOL      0.074810
     69 N8          3.8190    4.0660    1.0240 n         1 MOL     -0.457357
     70 C22         2.4870    4.5870    1.2970 c3        1 MOL     -0.113552
     71 C23         1.4610    3.5200    1.3540 c         1 MOL      0.559266
     72 O13         1.5270    2.4340    0.7920 o         1 MOL     -0.399547
     73 C24         2.0330    5.6630    0.2880 c3        1 MOL      0.541109
     74 C25         2.6770    7.0540    0.2190 c3        1 MOL     -0.539533
     75 O14         2.0650    5.1350   -1.1050 oh        1 MOL     -0.632807
     76 H29         3.8610    3.2740    0.3950 hn        1 MOL      0.330216
     77 H30         2.5210    5.1930    2.2140 h1        1 MOL      0.076767
     78 H31         0.9930    5.7640    0.5930 h1        1 MOL     -0.053339
     79 H32         1.8670    4.1990   -1.1470 ho        1 MOL      0.344554
     80 H33         2.0210    7.7060   -0.3640 hc        1 MOL      0.145267
     81 H34         2.7120    7.4530    1.2340 hc        1 MOL      0.145267
     82 H35         3.6810    7.0190   -0.1980 hc        1 MOL      0.145267
     83 N9          0.3660    3.8420    2.0750 n         1 MOL     -0.573818
     84 C26        -0.8460    3.0740    2.0410 c3        1 MOL     -0.092063
     85 C27        -1.5040    3.2580    0.6690 c         1 MOL      0.596826
     86 O15        -1.8670    4.4110    0.3590 o         1 MOL     -0.594113
     87 C28        -1.8170    3.2820    3.2220 c3        1 MOL      0.294464
     88 C29        -1.0850    2.8220    4.4400 c3        1 MOL      0.111385
     89 C30        -3.1600    2.5090    3.0260 c3        1 MOL     -0.053662
     90 C31        -1.8330    3.0350    5.7910 c3        1 MOL     -0.422286
     91 H36         0.3100    4.6170    2.7250 hn        1 MOL      0.308628
     92 H37        -0.5210    2.0330    2.0320 h1        1 MOL      0.021959
     93 H38        -2.0770    4.3350    3.3030 hc        1 MOL     -0.061992
     94 H39        -0.1220    3.3360    4.5710 hc        1 MOL     -0.012512
     95 H40        -0.9920    1.7350    4.3500 hc        1 MOL     -0.012512
     96 H41        -3.6670    2.9140    2.1540 hc        1 MOL     -0.005238
     97 H42        -2.8190    1.4850    2.9460 hc        1 MOL     -0.005238
     98 H43        -3.7460    2.6870    3.9300 hc        1 MOL     -0.005238
     99 H44        -2.3040    4.0150    5.8210 hc        1 MOL      0.100315
    100 H45        -2.4340    2.1220    5.7740 hc        1 MOL      0.100315
    101 H46        -1.0740    2.9420    6.5660 hc        1 MOL      0.100315
    102 N10        -1.7080    2.1920   -0.0780 n         1 MOL     -0.302702
    103 C32        -2.6340    1.9480   -1.1820 c3        1 MOL      0.194450
    104 C33        -4.0990    1.6020   -0.7940 c         1 MOL      0.333769
    105 O16        -4.3410    0.9850    0.2180 o         1 MOL     -0.163453
    106 C34        -2.0260    0.9330   -2.1410 c3        1 MOL     -0.373144
    107 C35        -0.5590    1.3660   -2.4810 c         1 MOL      0.754472
    108 O17         0.3460    1.1630   -1.6760 o         1 MOL     -0.667512
    109 O18        -0.3510    1.9070   -3.5900 o         1 MOL     -0.667512
    110 H47        -1.3440    1.3140    0.2460 hn        1 MOL      0.163502
    111 H48        -2.7610    2.9140   -1.6680 h1        1 MOL      0.031412
    112 H49        -2.5480    0.8680   -3.0880 hc        1 MOL      0.076697
    113 H50        -1.9880   -0.0910   -1.7660 hc        1 MOL      0.076697
    114 N11        -5.1000    1.9920   -1.5680 n         1 MOL     -0.608271
    115 C36        -6.4860    1.4730   -1.3610 c3        1 MOL      0.307755
    116 C37        -6.6370    0.0160   -1.1160 c         1 MOL      0.344887
    117 O19        -7.3340   -0.3570   -0.1690 o         1 MOL     -0.481942
    118 C38        -7.4370    1.9150   -2.4150 c3        1 MOL     -0.255558
    119 C39        -8.8750    1.4360   -2.1220 ca        1 MOL      0.084753
    120 C40        -9.6740    2.1740   -1.2680 ca        1 MOL     -0.115515
    121 C41        -9.4240    0.3540   -2.8240 ca        1 MOL     -0.115515
    122 C42       -11.0820    1.8970   -1.0880 ca        1 MOL     -0.147542
    123 C43       -10.8120    0.1390   -2.7430 ca        1 MOL     -0.147542
    124 C44       -11.7090    0.8600   -1.7820 ca        1 MOL     -0.104392
    125 H51        -4.9090    2.3540   -2.4940 hn        1 MOL      0.354984
    126 H52        -6.8190    1.9370   -0.4340 h1        1 MOL      0.068807
    127 H53        -7.0510    1.6380   -3.3950 hc        1 MOL      0.067908
    128 H54        -7.3140    3.0030   -2.4150 hc        1 MOL      0.067908
    129 H55        -9.1670    2.8590   -0.5990 ha        1 MOL      0.103458
    130 H56        -8.8610   -0.2560   -3.5210 ha        1 MOL      0.103458
    131 H57       -11.5760    2.5000   -0.3430 ha        1 MOL      0.115408
    132 H58       -11.3010   -0.6210   -3.3230 ha        1 MOL      0.115408
    133 H59       -12.7290    0.5220   -1.6970 ha        1 MOL      0.118964
    134 N12        -5.9180   -0.8970   -1.8520 n         1 MOL      0.005958
    135 C45        -6.0230   -2.3150   -1.6040 c3        1 MOL     -0.006854
    136 C46        -5.5430   -2.7050   -0.2430 c         1 MOL      0.364250
    137 O20        -5.9760   -3.7010    0.3390 o         1 MOL     -0.550299
    138 C47        -5.1430   -2.9740   -2.7350 c3        1 MOL     -0.189821
    139 C48        -4.3950   -1.8960   -3.3700 c3        1 MOL     -0.027156
    140 C49        -5.2340   -0.6570   -3.1100 c3        1 MOL      0.060234
    141 H60        -7.0760   -2.5880   -1.6820 h1        1 MOL      0.049434
    142 H61        -4.5260   -3.7000   -2.1990 hc        1 MOL      0.071650
    143 H62        -5.8220   -3.3610   -3.4930 hc        1 MOL      0.071650
    144 H63        -3.4420   -1.8600   -2.8460 hc        1 MOL      0.047210
    145 H64        -4.3120   -2.0280   -4.4490 hc        1 MOL      0.047210
    146 H65        -4.6240    0.2400   -3.0060 h1        1 MOL     -0.008034
    147 H66        -5.8810   -0.5190   -3.9840 h1        1 MOL     -0.008034
    148 N13        -4.6450   -1.9760    0.3130 n         1 MOL      0.019021
    149 C50        -4.0750   -2.3140    1.6110 c3        1 MOL     -0.185469
    150 C51        -4.8520   -1.6190    2.7150 c         1 MOL      0.514621
    151 O21        -5.0780   -2.1050    3.7900 o         1 MOL     -0.559989
    152 C52        -2.6420   -1.6470    1.5950 c3        1 MOL     -0.054128
    153 C53        -1.6700   -2.2330    0.5320 c3        1 MOL     -0.024293
    154 C54        -0.2720   -1.6160    0.4970 c         1 MOL      0.341718
    155 O22         0.6590   -2.1530   -0.1370 o         1 MOL     -0.565826
    156 O23        -0.1480   -0.4920    1.0610 o         1 MOL     -0.565826
    157 H67        -4.3700   -1.1260   -0.1520 hn        1 MOL      0.059198
    158 H68        -4.0840   -3.3900    1.7570 h1        1 MOL      0.142412
    159 H69        -2.1860   -1.8450    2.5640 hc        1 MOL      0.046325
    160 H70        -2.7400   -0.5810    1.4080 hc        1 MOL      0.046325
    161 H71        -2.1330   -1.9670   -0.4190 hc        1 MOL      0.050264
    162 H72        -1.6010   -3.3180    0.5820 hc        1 MOL      0.050264
    163 N14        -5.4420   -0.4460    2.3860 n         1 MOL     -0.006007
    164 C55        -6.4020    0.1890    3.2140 c3        1 MOL     -0.229097
    165 H73        -5.9130    0.5680    4.1120 h1        1 MOL      0.077096
    166 H74        -6.8590    1.0170    2.6730 h1        1 MOL      0.077096
    167 H75        -7.1720   -0.5300    3.4970 h1        1 MOL      0.077096
    168 H76        -5.1360   -0.0510    1.5100 hn        1 MOL     -0.103600
    169 Ca1         2.1260    0.0360   -0.2780 Ca        1 MOL      1.680085
    170 O24         1.6730    0.0430    2.6740 oh        1 MOL     -0.963472
    171 H77         0.8410   -0.3030    2.3640 ho        1 MOL      0.445187
    172 H78         1.7360   -0.2460    3.5870 ho        1 MOL      0.445187
    173 O25         4.0670    0.8880    1.6450 oh        1 MOL     -0.963472
    174 H79         4.7770    0.7690    2.2700 ho        1 MOL      0.445187
    175 H80         3.2760    0.7600    2.1660 ho        1 MOL      0.445187
@<TRIPOS>BOND
     1    1    2 1   
     2    1    4 1   
     3    1    5 1   
     4    1    6 1   
     5    2    3 2   
     6    2    7 1   
     7    7    8 1   
     8    7   15 1   
     9    8    9 1   
    10    8   11 1   
    11    8   16 1   
    12    9   10 2   
    13    9   19 1   
    14   11   12 1   
    15   11   17 1   
    16   11   18 1   
    17   12   13 1   
    18   12   14 1   
    19   19   20 1   
    20   19   24 1   
    21   20   21 1   
    22   20   23 1   
    23   20   25 1   
    24   21   22 2   
    25   21   29 1   
    26   23   26 1   
    27   23   27 1   
    28   23   28 1   
    29   29   30 1   
    30   29   37 1   
    31   30   31 1   
    32   30   33 1   
    33   30   38 1   
    34   31   32 2   
    35   31   41 1   
    36   33   34 1   
    37   33   39 1   
    38   33   40 1   
    39   34   35 1   
    40   34   36 1   
    41   41   42 1   
    42   41   45 1   
    43   42   43 1   
    44   42   46 1   
    45   42   47 1   
    46   43   44 2   
    47   43   48 1   
    48   48   49 1   
    49   48   56 1   
    50   49   50 1   
    51   49   52 1   
    52   49   57 1   
    53   50   51 2   
    54   50   62 1   
    55   52   53 1   
    56   52   58 1   
    57   52   59 1   
    58   53   54 1   
    59   53   55 2   
    60   54   60 1   
    61   54   61 1   
    62   62   63 1   
    63   62   66 1   
    64   63   64 1   
    65   63   67 1   
    66   63   68 1   
    67   64   65 2   
    68   64   69 1   
    69   69   70 1   
    70   69   76 1   
    71   70   71 1   
    72   70   73 1   
    73   70   77 1   
    74   71   72 2   
    75   71   83 1   
    76   73   74 1   
    77   73   75 1   
    78   73   78 1   
    79   74   80 1   
    80   74   81 1   
    81   74   82 1   
    82   75   79 1   
    83   83   84 1   
    84   83   91 1   
    85   84   85 1   
    86   84   87 1   
    87   84   92 1   
    88   85   86 2   
    89   85  102 1   
    90   87   88 1   
    91   87   89 1   
    92   87   93 1   
    93   88   90 1   
    94   88   94 1   
    95   88   95 1   
    96   89   96 1   
    97   89   97 1   
    98   89   98 1   
    99   90   99 1   
   100   90  100 1   
   101   90  101 1   
   102  102  103 1   
   103  102  110 1   
   104  103  104 1   
   105  103  106 1   
   106  103  111 1   
   107  104  105 2   
   108  104  114 1   
   109  106  107 1   
   110  106  112 1   
   111  106  113 1   
   112  107  108 1   
   113  107  109 1   
   114  114  115 1   
   115  114  125 1   
   116  115  116 1   
   117  115  118 1   
   118  115  126 1   
   119  116  117 2   
   120  116  134 1   
   121  118  119 1   
   122  118  127 1   
   123  118  128 1   
   124  119  120 ar  
   125  119  121 ar  
   126  120  122 ar  
   127  120  129 1   
   128  121  123 ar  
   129  121  130 1   
   130  122  124 ar  
   131  122  131 1   
   132  123  124 ar  
   133  123  132 1   
   134  124  133 1   
   135  134  135 1   
   136  134  140 1   
   137  135  136 1   
   138  135  138 1   
   139  135  141 1   
   140  136  137 2   
   141  136  148 1   
   142  138  139 1   
   143  138  142 1   
   144  138  143 1   
   145  139  140 1   
   146  139  144 1   
   147  139  145 1   
   148  140  146 1   
   149  140  147 1   
   150  148  149 1   
   151  148  157 1   
   152  149  150 1   
   153  149  152 1   
   154  149  158 1   
   155  150  151 2   
   156  150  163 1   
   157  152  153 1   
   158  152  159 1   
   159  152  160 1   
   160  153  154 1   
   161  153  161 1   
   162  153  162 1   
   163  154  155 1   
   164  154  156 1   
   165  163  164 1   
   166  163  168 1   
   167  164  165 1   
   168  164  166 1   
   169  164  167 1   
   170  170  171 1   
   171  170  172 1   
   172  173  174 1   
   173  173  175 1   
@<TRIPOS>SUBSTRUCTURE
     1 MOL         1 TEMP              0 ****  ****    0 ROOT
