@<TRIPOS>MOLECULE
MOL
  189   185     1     0     0
SMALL
resp


@<TRIPOS>ATOM
      1 C1         -0.2600    3.8920    5.9110 c3        1 MOL     -0.381106
      2 C2         -1.1130    3.3300    4.7570 c         1 MOL      0.696667
      3 O1         -1.5640    2.1490    4.7540 o         1 MOL     -0.613827
      4 H1          0.1270    4.8720    5.6320 hc        1 MOL      0.101571
      5 H2         -0.8740    3.9850    6.8060 hc        1 MOL      0.101571
      6 H3          0.5730    3.2170    6.1090 hc        1 MOL      0.101571
      7 N1         -1.3130    4.1360    3.6740 n         1 MOL     -0.582121
      8 C3         -1.9740    3.9030    2.3710 c3        1 MOL      0.129962
      9 C4         -1.6820    4.9560    1.2890 c         1 MOL      0.537737
     10 O2         -1.5560    6.1430    1.5910 o         1 MOL     -0.570729
     11 C5         -3.5080    3.7720    2.5740 c3        1 MOL     -0.346031
     12 C6         -4.2010    3.0970    1.4530 c         1 MOL      0.756105
     13 O3         -5.4570    3.1210    1.4340 o         1 MOL     -0.708510
     14 O4         -3.4730    2.4570    0.6920 o         1 MOL     -0.708510
     15 H4         -0.9680    5.0780    3.7640 hn        1 MOL      0.289383
     16 H5         -1.6500    2.9030    2.0870 h1        1 MOL      0.087219
     17 H6         -4.0220    4.7290    2.6510 hc        1 MOL      0.103273
     18 H7         -3.7660    3.2020    3.4630 hc        1 MOL      0.103273
     19 N2         -1.4740    4.4900    0.0290 n         1 MOL     -0.343958
     20 C7         -1.4800    5.3560   -1.1210 c3        1 MOL     -0.047970
     21 C8         -2.6050    5.0560   -2.1480 c         1 MOL      0.647858
     22 O5         -2.7600    5.8360   -3.0840 o         1 MOL     -0.586590
     23 C9         -0.0500    5.4200   -1.8260 c3        1 MOL      0.193888
     24 C10         1.1250    5.3780   -0.8670 c3        1 MOL      0.107055
     25 C11         0.1490    6.6800   -2.7020 c3        1 MOL     -0.382152
     26 C12         2.5180    5.2430   -1.3770 c3        1 MOL     -0.135945
     27 H8         -1.3970    3.4970   -0.1500 hn        1 MOL      0.252813
     28 H9         -1.7320    6.3420   -0.7330 h1        1 MOL      0.065115
     29 H10         0.0080    4.5580   -2.4920 hc        1 MOL      0.018134
     30 H11         1.0330    4.5290   -0.1990 hc        1 MOL     -0.029087
     31 H12         1.1100    6.2920   -0.2710 hc        1 MOL     -0.029087
     32 H13        -0.2390    7.5660   -2.1980 hc        1 MOL      0.078442
     33 H14         1.1780    6.9910   -2.8560 hc        1 MOL      0.078442
     34 H15        -0.1990    6.6260   -3.7380 hc        1 MOL      0.078442
     35 H16         2.8960    6.0830   -1.9470 hc        1 MOL      0.022956
     36 H17         3.1760    5.0470   -0.5260 hc        1 MOL      0.022956
     37 H18         2.5310    4.2990   -1.9220 hc        1 MOL      0.022956
     38 N3         -3.3890    3.9840   -1.9900 n         1 MOL     -0.653409
     39 C13        -3.9880    3.4150   -3.2030 c3        1 MOL      0.239745
     40 C14        -5.3080    2.6050   -2.8990 c         1 MOL      0.368886
     41 O6         -6.0470    2.1880   -3.8020 o         1 MOL     -0.550626
     42 C15        -3.0440    2.5610   -3.9850 c3        1 MOL     -0.428186
     43 C16        -2.2950    1.5190   -3.1210 c         1 MOL      0.887147
     44 O7         -2.7330    1.1520   -2.0250 o         1 MOL     -0.746769
     45 O8         -1.1950    1.0300   -3.5030 o         1 MOL     -0.746769
     46 H19        -3.2590    3.3560   -1.2050 hn        1 MOL      0.362432
     47 H20        -4.3190    4.2370   -3.8310 h1        1 MOL      0.070522
     48 H21        -2.3010    3.2250   -4.4180 hc        1 MOL      0.102662
     49 H22        -3.5730    2.0060   -4.7660 hc        1 MOL      0.102662
     50 N4         -5.7550    2.4720   -1.6230 n         1 MOL     -0.202562
     51 C17        -7.1170    2.0320   -1.2560 c3        1 MOL     -0.067534
     52 C18        -7.3880    0.5710   -1.5140 c         1 MOL      0.512416
     53 O9         -8.5400    0.1980   -1.4150 o         1 MOL     -0.619271
     54 H23        -5.2810    2.8950   -0.8310 hn        1 MOL      0.155117
     55 H24        -7.9580    2.5960   -1.6700 h1        1 MOL      0.071965
     56 H25        -7.1960    2.0180   -0.1680 h1        1 MOL      0.071965
     57 N5         -6.4040   -0.3280   -1.7120 n         1 MOL     -0.215621
     58 C19        -6.6280   -1.7640   -2.0810 c3        1 MOL     -0.093891
     59 C20        -6.8700   -2.7790   -0.9460 c         1 MOL      0.513911
     60 O10        -7.2140   -3.8880   -1.2310 o         1 MOL     -0.525055
     61 C21        -5.4610   -2.2820   -2.9610 c3        1 MOL     -0.232661
     62 C22        -4.0910   -2.0630   -2.3660 c         1 MOL      0.665425
     63 O11        -3.9900   -1.5770   -1.2100 o         1 MOL     -0.668074
     64 O12        -3.0310   -2.1310   -3.0700 o         1 MOL     -0.668074
     65 H26        -5.4420    0.0060   -1.6860 hn        1 MOL      0.250573
     66 H27        -7.5780   -1.6850   -2.6150 h1        1 MOL      0.116808
     67 H28        -5.5320   -1.7280   -3.8950 hc        1 MOL      0.078501
     68 H29        -5.6700   -3.3050   -3.2640 hc        1 MOL      0.078501
     69 N6         -6.7970   -2.3310    0.2920 n         1 MOL     -0.292152
     70 C23        -6.9900   -3.1850    1.4820 c3        1 MOL     -0.130919
     71 C24        -5.7510   -4.0910    1.8340 c         1 MOL      0.436920
     72 O13        -5.9410   -5.1620    2.4190 o         1 MOL     -0.566785
     73 H30        -6.3280   -1.4650    0.5150 hn        1 MOL      0.208118
     74 H31        -7.8570   -3.8090    1.2960 h1        1 MOL      0.087860
     75 H32        -7.1700   -2.6100    2.3900 h1        1 MOL      0.087860
     76 N7         -4.6430   -3.7360    1.2330 n         1 MOL     -0.146726
     77 C25        -3.3740   -4.5000    1.5140 c3        1 MOL      0.017154
     78 C26        -2.2600   -3.5240    1.7860 c         1 MOL      0.512518
     79 O14        -2.3560   -2.3060    1.4740 o         1 MOL     -0.624184
     80 C27        -3.0710   -5.4930    0.3530 c3        1 MOL     -0.243652
     81 C28        -2.8870   -4.8080   -1.0630 c3        1 MOL     -0.026935
     82 C29        -2.3350   -5.6190   -2.2160 c         1 MOL      0.593455
     83 N8         -2.0860   -4.9960   -3.3290 n         1 MOL     -0.698626
     84 O15        -2.1000   -6.8030   -2.0880 o         1 MOL     -0.606985
     85 H33        -4.7190   -2.8380    0.7860 hn        1 MOL      0.178622
     86 H34        -3.3900   -5.1020    2.4160 h1        1 MOL      0.043949
     87 H35        -3.9430   -6.1210    0.2170 hc        1 MOL      0.099723
     88 H36        -2.2270   -6.1530    0.5680 hc        1 MOL      0.099723
     89 H37        -2.1750   -3.9800   -1.0190 hc        1 MOL      0.046284
     90 H38        -3.7910   -4.2830   -1.3560 hc        1 MOL      0.046284
     91 H39        -2.3740   -4.0670   -3.6070 hn        1 MOL      0.318092
     92 H40        -1.7980   -5.5940   -4.0860 hn        1 MOL      0.318092
     93 N9         -1.1300   -4.0160    2.3340 n         1 MOL     -0.348245
     94 C30         0.0330   -3.1940    2.6860 c3        1 MOL     -0.170389
     95 C31         1.1870   -3.4560    1.6750 c         1 MOL      0.590074
     96 O16         1.6350   -4.5450    1.4610 o         1 MOL     -0.595430
     97 C32         0.3590   -3.2710    4.1640 c3        1 MOL      0.267217
     98 C33         1.7710   -2.7870    4.4920 c3        1 MOL     -0.349745
     99 C34        -0.7160   -2.4080    4.8990 c3        1 MOL     -0.349745
    100 H41        -1.0250   -5.0080    2.5190 hn        1 MOL      0.281711
    101 H42        -0.2150   -2.1490    2.5220 h1        1 MOL      0.164651
    102 H43         0.2120   -4.2750    4.5810 hc        1 MOL     -0.023391
    103 H44         2.5240   -3.4200    4.0230 hc        1 MOL      0.083476
    104 H45         2.0660   -1.7990    4.1600 hc        1 MOL      0.083476
    105 H46         1.8360   -2.7790    5.5850 hc        1 MOL      0.083476
    106 H47        -0.5050   -1.3630    4.6710 hc        1 MOL      0.083476
    107 H48        -1.6770   -2.7190    4.5040 hc        1 MOL      0.083476
    108 H49        -0.6610   -2.5300    5.9740 hc        1 MOL      0.083476
    109 N10         1.6840   -2.4290    1.0220 n         1 MOL     -0.213113
    110 C35         2.7810   -2.5050    0.0410 c3        1 MOL      0.005113
    111 C36         4.1430   -2.3530    0.7440 c         1 MOL      0.289996
    112 O17         4.1780   -1.8520    1.8650 o         1 MOL     -0.325851
    113 C37         2.4870   -1.3810   -1.0590 c3        1 MOL     -0.122601
    114 C38         3.6070   -1.3910   -2.0570 c         1 MOL      0.683364
    115 N11         3.9340   -2.4790   -2.6490 n         1 MOL     -0.705237
    116 O18         4.2810   -0.3570   -2.1820 o         1 MOL     -0.657557
    117 H50         1.2970   -1.5270    1.2880 hn        1 MOL      0.067235
    118 H51         2.8390   -3.4620   -0.4560 h1        1 MOL      0.079905
    119 H52         2.3320   -0.3840   -0.6540 hc        1 MOL      0.097899
    120 H53         1.5790   -1.6560   -1.5850 hc        1 MOL      0.097899
    121 H54         3.4390   -3.3580   -2.5620 hn        1 MOL      0.310655
    122 H55         4.7360   -2.4420   -3.2560 hn        1 MOL      0.310655
    123 N12         5.2760   -2.7240    0.1310 n         1 MOL     -0.307344
    124 C39         6.6580   -2.3550    0.5150 c3        1 MOL      0.121523
    125 C40         6.9480   -0.8910    0.6660 c         1 MOL      0.372322
    126 O19         7.9030   -0.5210    1.4200 o         1 MOL     -0.544686
    127 C41         7.6240   -2.9710   -0.5290 c3        1 MOL     -0.127474
    128 C42         7.3870   -2.6840   -2.0090 ca        1 MOL     -0.014070
    129 C43         6.9430   -3.7000   -2.8530 ca        1 MOL     -0.032186
    130 C44         7.6500   -1.4240   -2.5820 ca        1 MOL     -0.032186
    131 C45         6.7550   -3.4320   -4.2130 ca        1 MOL     -0.334959
    132 C46         7.4360   -1.1710   -3.9420 ca        1 MOL     -0.334959
    133 C47         7.0730   -2.2000   -4.7990 ca        1 MOL      0.431005
    134 O20         7.2250   -2.0940   -6.1990 oh        1 MOL     -0.597868
    135 H56         5.0940   -3.1780   -0.7570 hn        1 MOL      0.184585
    136 H57         6.9180   -2.7370    1.5040 h1        1 MOL      0.053330
    137 H58         7.5280   -4.0470   -0.4240 hc        1 MOL      0.045662
    138 H59         8.6450   -2.6960   -0.2590 hc        1 MOL      0.045662
    139 H60         6.8310   -4.7100   -2.5060 ha        1 MOL      0.084772
    140 H61         7.9940   -0.6260   -1.9380 ha        1 MOL      0.084772
    141 H62         6.7050   -4.2980   -4.8510 ha        1 MOL      0.140436
    142 H63         7.6380   -0.1880   -4.3410 ha        1 MOL      0.140436
    143 H64         7.3550   -1.1700   -6.4540 ho        1 MOL      0.427711
    144 N13         6.1780   -0.0010    0.0040 n         1 MOL     -0.155853
    145 C48         6.0910    1.5010    0.2920 c3        1 MOL     -0.131097
    146 C49         5.2680    1.8410    1.4730 c         1 MOL      0.416875
    147 O21         5.5050    2.8910    2.1030 o         1 MOL     -0.551843
    148 C50         5.5280    2.2320   -0.9150 c3        1 MOL      0.336104
    149 C51         6.3970    2.2190   -2.1130 c3        1 MOL     -0.382185
    150 C52         7.7450    2.9960   -1.9070 c         1 MOL      0.691588
    151 O22         8.6910    2.4030   -1.3150 o         1 MOL     -0.717921
    152 O23         7.8200    4.2180   -2.2290 o         1 MOL     -0.717921
    153 H65         5.4080   -0.3140   -0.5620 hn        1 MOL      0.485481
    154 H66         7.0750    1.9280    0.4470 h1        1 MOL      0.137398
    155 H67         5.2920    3.2520   -0.5830 hc        1 MOL     -0.033880
    156 H68         4.5160    1.8520   -1.0480 hc        1 MOL     -0.033880
    157 H69         5.8550    2.5700   -2.9830 hc        1 MOL      0.057726
    158 H70         6.6970    1.2290   -2.4570 hc        1 MOL      0.057726
    159 N14         4.3340    1.0470    1.9200 n         1 MOL     -0.108894
    160 C53         3.3750    1.3640    2.9580 c3        1 MOL     -0.075556
    161 C54         3.8800    0.7660    4.2700 c         1 MOL      0.528580
    162 O24         3.6390    1.3400    5.3010 o         1 MOL     -0.568354
    163 C55         2.0290    0.8460    2.5720 c3        1 MOL      0.076709
    164 C56         1.4230    1.6960    1.4770 c3        1 MOL     -0.054604
    165 C57         0.0980    1.0780    0.9370 c         1 MOL      0.722721
    166 O25        -0.5980    1.6810    0.1280 o         1 MOL     -0.722125
    167 O26        -0.2850   -0.0320    1.3590 o         1 MOL     -0.722125
    168 H71         4.2280    0.1470    1.4560 hn        1 MOL     -0.227687
    169 H72         3.2140    2.4220    3.1340 h1        1 MOL      0.090725
    170 H73         1.3700    0.9450    3.4330 hc        1 MOL      0.021761
    171 H74         2.0760   -0.2350    2.4110 hc        1 MOL      0.021761
    172 H75         2.0980    1.8100    0.6340 hc        1 MOL      0.027239
    173 H76         1.1470    2.6510    1.9190 hc        1 MOL      0.027239
    174 N15         4.6520   -0.2990    4.2120 n         1 MOL     -0.198588
    175 C58         4.9970   -1.0510    5.4330 c3        1 MOL     -0.144795
    176 H77         4.8440   -2.1170    5.2580 h1        1 MOL      0.059521
    177 H78         6.0410   -0.8710    5.6880 h1        1 MOL      0.059521
    178 H79         4.3590   -0.7240    6.2540 h1        1 MOL      0.059521
    179 H80         4.8600   -0.8370    3.3840 hn        1 MOL      0.211806
    180 Ca1        -2.5430   -0.0190    0.2180 Ca        1 MOL      1.742307
    181 O27        -2.9460    0.2100    2.8760 oh        1 MOL     -0.905790
    182 H81        -2.1160    0.5820    3.1710 ho        1 MOL      0.436628
    183 H82        -3.1880   -0.4190    3.5540 ho        1 MOL      0.436628
    184 O28        -5.3340    0.4240    0.8890 oh        1 MOL     -0.905790
    185 H83        -5.5480    0.1170    1.7750 ho        1 MOL      0.436628
    186 H84        -5.3850    1.3730    0.9510 ho        1 MOL      0.436628
    187 O29        -1.0260   -1.2470   -1.7910 oh        1 MOL     -0.905790
    188 H85        -1.0920   -0.5170   -2.4100 ho        1 MOL      0.436628
    189 H86        -1.7210   -1.8460   -2.0560 ho        1 MOL      0.436628
@<TRIPOS>BOND
     1    1    2 1   
     2    1    4 1   
     3    1    5 1   
     4    1    6 1   
     5    2    3 2   
     6    2    7 1   
     7    7    8 1   
     8    7   15 1   
     9    8    9 1   
    10    8   11 1   
    11    8   16 1   
    12    9   10 2   
    13    9   19 1   
    14   11   12 1   
    15   11   17 1   
    16   11   18 1   
    17   12   13 1   
    18   12   14 1   
    19   19   20 1   
    20   19   27 1   
    21   20   21 1   
    22   20   23 1   
    23   20   28 1   
    24   21   22 2   
    25   21   38 1   
    26   23   24 1   
    27   23   25 1   
    28   23   29 1   
    29   24   26 1   
    30   24   30 1   
    31   24   31 1   
    32   25   32 1   
    33   25   33 1   
    34   25   34 1   
    35   26   35 1   
    36   26   36 1   
    37   26   37 1   
    38   38   39 1   
    39   38   46 1   
    40   39   40 1   
    41   39   42 1   
    42   39   47 1   
    43   40   41 2   
    44   40   50 1   
    45   42   43 1   
    46   42   48 1   
    47   42   49 1   
    48   43   44 1   
    49   43   45 1   
    50   50   51 1   
    51   50   54 1   
    52   51   52 1   
    53   51   55 1   
    54   51   56 1   
    55   52   53 2   
    56   52   57 1   
    57   57   58 1   
    58   57   65 1   
    59   58   59 1   
    60   58   61 1   
    61   58   66 1   
    62   59   60 2   
    63   59   69 1   
    64   61   62 1   
    65   61   67 1   
    66   61   68 1   
    67   62   63 1   
    68   62   64 1   
    69   69   70 1   
    70   69   73 1   
    71   70   71 1   
    72   70   74 1   
    73   70   75 1   
    74   71   72 2   
    75   71   76 1   
    76   76   77 1   
    77   76   85 1   
    78   77   78 1   
    79   77   80 1   
    80   77   86 1   
    81   78   79 2   
    82   78   93 1   
    83   80   81 1   
    84   80   87 1   
    85   80   88 1   
    86   81   82 1   
    87   81   89 1   
    88   81   90 1   
    89   82   83 1   
    90   82   84 2   
    91   83   91 1   
    92   83   92 1   
    93   93   94 1   
    94   93  100 1   
    95   94   95 1   
    96   94   97 1   
    97   94  101 1   
    98   95   96 2   
    99   95  109 1   
   100   97   98 1   
   101   97   99 1   
   102   97  102 1   
   103   98  103 1   
   104   98  104 1   
   105   98  105 1   
   106   99  106 1   
   107   99  107 1   
   108   99  108 1   
   109  109  110 1   
   110  109  117 1   
   111  110  111 1   
   112  110  113 1   
   113  110  118 1   
   114  111  112 2   
   115  111  123 1   
   116  113  114 1   
   117  113  119 1   
   118  113  120 1   
   119  114  115 1   
   120  114  116 2   
   121  115  121 1   
   122  115  122 1   
   123  123  124 1   
   124  123  135 1   
   125  124  125 1   
   126  124  127 1   
   127  124  136 1   
   128  125  126 2   
   129  125  144 1   
   130  127  128 1   
   131  127  137 1   
   132  127  138 1   
   133  128  129 ar  
   134  128  130 ar  
   135  129  131 ar  
   136  129  139 1   
   137  130  132 ar  
   138  130  140 1   
   139  131  133 ar  
   140  131  141 1   
   141  132  133 ar  
   142  132  142 1   
   143  133  134 1   
   144  134  143 1   
   145  144  145 1   
   146  144  153 1   
   147  145  146 1   
   148  145  148 1   
   149  145  154 1   
   150  146  147 2   
   151  146  159 1   
   152  148  149 1   
   153  148  155 1   
   154  148  156 1   
   155  149  150 1   
   156  149  157 1   
   157  149  158 1   
   158  150  151 1   
   159  150  152 1   
   160  159  160 1   
   161  159  168 1   
   162  160  161 1   
   163  160  163 1   
   164  160  169 1   
   165  161  162 2   
   166  161  174 1   
   167  163  164 1   
   168  163  170 1   
   169  163  171 1   
   170  164  165 1   
   171  164  172 1   
   172  164  173 1   
   173  165  166 1   
   174  165  167 1   
   175  174  175 1   
   176  174  179 1   
   177  175  176 1   
   178  175  177 1   
   179  175  178 1   
   180  181  182 1   
   181  181  183 1   
   182  184  185 1   
   183  184  186 1   
   184  187  188 1   
   185  187  189 1   
@<TRIPOS>SUBSTRUCTURE
     1 MOL         1 TEMP              0 ****  ****    0 ROOT
