@<TRIPOS>MOLECULE
MOL
  183   181     1     0     0
SMALL
resp


@<TRIPOS>ATOM
      1 C1         -1.2120    1.2360    6.3310 c3        1 MOL     -0.440174
      2 C2         -1.4040    1.4820    4.8680 c         1 MOL      0.806486
      3 O1         -0.4500    1.9540    4.2160 o         1 MOL     -0.567419
      4 H1         -0.7350    0.2660    6.4760 hc        1 MOL      0.098102
      5 H2         -0.5790    2.0170    6.7520 hc        1 MOL      0.098102
      6 H3         -2.1800    1.2420    6.8310 hc        1 MOL      0.098102
      7 N1         -2.6100    1.0640    4.4200 n         1 MOL     -0.667650
      8 C3         -2.9290    1.1710    3.0600 c3        1 MOL      0.236695
      9 C4         -3.4390    2.5990    2.7000 c         1 MOL      0.385952
     10 O2         -4.3120    3.2160    3.3300 o         1 MOL     -0.575113
     11 C5         -4.0940    0.1790    2.7910 c3        1 MOL     -0.031507
     12 C6         -4.5930    0.0940    1.3170 c         1 MOL      0.482781
     13 O3         -5.8290   -0.1400    1.1250 o         1 MOL     -0.559035
     14 O4         -3.8930    0.4850    0.3310 o         1 MOL     -0.559035
     15 H4         -3.2610    0.6790    5.0810 hn        1 MOL      0.335100
     16 H5         -2.1170    0.9920    2.3510 h1        1 MOL     -0.017884
     17 H6         -4.9480    0.3860    3.4350 hc        1 MOL      0.008556
     18 H7         -3.8520   -0.8320    3.1270 hc        1 MOL      0.008556
     19 N2         -2.8460    3.1500    1.6400 n         1 MOL     -0.017195
     20 C7         -3.1990    4.4700    1.1940 c3        1 MOL     -0.002403
     21 C8         -4.2840    4.5300    0.0940 c         1 MOL      0.359312
     22 O5         -5.1150    5.4050   -0.0590 o         1 MOL     -0.527368
     23 C9         -1.8910    5.1750    0.6970 c3        1 MOL      0.225697
     24 C10        -0.6890    5.1340    1.6360 c3        1 MOL      0.030079
     25 C11        -2.1430    6.6520    0.3180 c3        1 MOL     -0.289694
     26 C12        -1.0260    5.5750    3.0400 c3        1 MOL     -0.078996
     27 H8         -2.0010    2.6950    1.3180 hn        1 MOL      0.144829
     28 H9         -3.6390    5.0350    2.0090 h1        1 MOL      0.051117
     29 H10        -1.5400    4.5780   -0.1480 hc        1 MOL     -0.034653
     30 H11         0.0510    5.8440    1.2640 hc        1 MOL      0.007473
     31 H12        -0.2710    4.1310    1.7290 hc        1 MOL      0.007473
     32 H13        -2.8800    6.7840   -0.4760 hc        1 MOL      0.060369
     33 H14        -2.4800    7.2280    1.1760 hc        1 MOL      0.060369
     34 H15        -1.2200    7.0960   -0.0650 hc        1 MOL      0.060369
     35 H16        -1.7510    6.3890    3.0760 hc        1 MOL     -0.006283
     36 H17        -1.3460    4.6810    3.5840 hc        1 MOL     -0.006283
     37 H18        -0.1310    6.0010    3.4880 hc        1 MOL     -0.006283
     38 N3         -4.4200    3.3650   -0.6810 n         1 MOL     -0.036628
     39 C13        -5.3540    3.2010   -1.8310 c3        1 MOL     -0.105720
     40 C14        -6.8060    2.7550   -1.5330 c         1 MOL      0.404397
     41 O6         -7.7670    2.9500   -2.3490 o         1 MOL     -0.538074
     42 C15        -4.8800    2.1300   -2.8480 c3        1 MOL     -0.227693
     43 C16        -3.4580    2.4690   -3.3480 c         1 MOL      0.668306
     44 O7         -2.5370    1.6840   -2.9780 o         1 MOL     -0.680665
     45 O8         -3.2190    3.4540   -4.1210 o         1 MOL     -0.680665
     46 H19        -3.7780    2.6080   -0.4850 hn        1 MOL     -0.006910
     47 H20        -5.4530    4.1240   -2.4050 h1        1 MOL      0.121545
     48 H21        -5.5660    1.9130   -3.6720 hc        1 MOL      0.097297
     49 H22        -4.8420    1.1360   -2.3970 hc        1 MOL      0.097297
     50 N4         -7.0550    2.1450   -0.3730 n         1 MOL     -0.245813
     51 C17        -8.2740    1.4380   -0.0720 c3        1 MOL     -0.068669
     52 C18        -8.5500    0.2580   -1.0270 c         1 MOL      0.447489
     53 O9         -9.7100   -0.1270   -1.2700 o         1 MOL     -0.585918
     54 H23        -6.3480    2.0690    0.3560 hn        1 MOL      0.235885
     55 H24        -9.1570    2.0540    0.0520 h1        1 MOL      0.069929
     56 H25        -8.0740    1.0080    0.9120 h1        1 MOL      0.069929
     57 N5         -7.4560   -0.4500   -1.3490 n         1 MOL     -0.062105
     58 C19        -7.4310   -1.7230   -2.0560 c3        1 MOL      0.021672
     59 C20        -7.3440   -2.8600   -1.0640 c         1 MOL      0.383225
     60 O10        -7.7500   -3.9350   -1.4390 o         1 MOL     -0.573698
     61 C21        -6.2950   -1.7580   -3.0490 c3        1 MOL     -0.039071
     62 C22        -4.8300   -1.5230   -2.5310 c         1 MOL      0.680486
     63 O11        -3.9930   -0.8760   -3.1600 o         1 MOL     -0.722841
     64 O12        -4.4310   -1.9230   -1.4080 o         1 MOL     -0.722841
     65 H26        -6.5810   -0.1210   -0.9600 hn        1 MOL     -0.064024
     66 H27        -8.3680   -1.7500   -2.6200 h1        1 MOL      0.081941
     67 H28        -6.4620   -1.0170   -3.8300 hc        1 MOL      0.012725
     68 H29        -6.3430   -2.7160   -3.5670 hc        1 MOL      0.012725
     69 N6         -6.8760   -2.6630    0.1560 n         1 MOL     -0.028552
     70 C23        -6.7080   -3.6350    1.2480 c3        1 MOL     -0.297065
     71 C24        -5.3080   -4.2840    1.3860 c         1 MOL      0.631235
     72 O13        -5.2180   -5.2360    2.1730 o         1 MOL     -0.622040
     73 H30        -6.7160   -1.6940    0.3820 hn        1 MOL      0.109851
     74 H31        -7.4630   -4.3670    0.9610 h1        1 MOL      0.111403
     75 H32        -6.9140   -3.0720    2.1590 h1        1 MOL      0.111403
     76 N7         -4.2540   -3.9030    0.7070 n         1 MOL     -0.269302
     77 C25        -2.8500   -4.2760    0.9120 c3        1 MOL     -0.060827
     78 C26        -1.7620   -3.2010    1.2460 c         1 MOL      0.548205
     79 O14        -1.9360   -2.0220    0.8740 o         1 MOL     -0.597465
     80 C27        -2.4130   -5.1530   -0.3580 c3        1 MOL     -0.154247
     81 C28        -2.7210   -4.8390   -1.8310 c3        1 MOL     -0.030571
     82 C29        -1.7620   -3.8230   -2.4670 c         1 MOL      0.636860
     83 N8         -1.3550   -4.1800   -3.6400 n         1 MOL     -0.752139
     84 O15        -1.3480   -2.8070   -1.9930 o         1 MOL     -0.501504
     85 H33        -4.3960   -3.0980    0.1120 hn        1 MOL      0.262658
     86 H34        -2.8330   -4.9770    1.7390 h1        1 MOL      0.068045
     87 H35        -2.8930   -6.1110   -0.1470 hc        1 MOL      0.057614
     88 H36        -1.3480   -5.4050   -0.3120 hc        1 MOL      0.057614
     89 H37        -3.7370   -4.5050   -2.0330 hc        1 MOL      0.016677
     90 H38        -2.5730   -5.8040   -2.3310 hc        1 MOL      0.016677
     91 H39        -1.8000   -4.9890   -4.0520 hn        1 MOL      0.345285
     92 H40        -0.5970   -3.6890   -4.0910 hn        1 MOL      0.345285
     93 N9         -0.6090   -3.6610    1.8570 n         1 MOL     -0.474285
     94 C30         0.6430   -2.8880    2.0500 c3        1 MOL      0.054737
     95 C31         1.6640   -3.3830    1.0760 c         1 MOL      0.506967
     96 O16         1.9540   -4.5810    1.1660 o         1 MOL     -0.564294
     97 C32         1.0850   -2.9220    3.4850 c3        1 MOL      0.278104
     98 C33         1.9660   -1.6650    3.8610 c3        1 MOL     -0.392535
     99 C34        -0.0340   -2.8540    4.5740 c3        1 MOL     -0.392535
    100 H41        -0.7780   -4.5650    2.2770 hn        1 MOL      0.280507
    101 H42         0.3790   -1.8580    1.8140 h1        1 MOL      0.166360
    102 H43         1.7300   -3.7820    3.6020 hc        1 MOL     -0.039936
    103 H44         2.2890   -1.5750    4.8970 hc        1 MOL      0.093200
    104 H45         2.9090   -1.7970    3.3310 hc        1 MOL      0.093200
    105 H46         1.3690   -0.8110    3.5390 hc        1 MOL      0.093200
    106 H47        -0.4810   -3.8390    4.7050 hc        1 MOL      0.093200
    107 H48         0.4670   -2.6420    5.5180 hc        1 MOL      0.093200
    108 H49        -0.7170   -2.0550    4.2750 hc        1 MOL      0.093200
    109 N10         2.0230   -2.5680    0.0340 n         1 MOL     -0.308360
    110 C35         3.1700   -2.7830   -0.8410 c3        1 MOL      0.093252
    111 C36         4.4580   -2.3220   -0.2280 c         1 MOL      0.465772
    112 O17         4.4210   -1.6970    0.7980 o         1 MOL     -0.348663
    113 C37         2.9210   -2.1620   -2.2580 c3        1 MOL     -0.545680
    114 C38         3.3010   -0.6750   -2.4500 c         1 MOL      0.621850
    115 N11         2.3560    0.2470   -2.2580 n         1 MOL     -0.781068
    116 O18         4.4460   -0.2650   -2.6190 o         1 MOL     -0.500416
    117 H50         1.4970   -1.7260   -0.1520 hn        1 MOL      0.156851
    118 H51         3.3020   -3.8400   -1.0820 h1        1 MOL      0.066411
    119 H52         1.8850   -2.2900   -2.5620 hc        1 MOL      0.179222
    120 H53         3.6020   -2.5910   -2.9940 hc        1 MOL      0.179222
    121 H54         1.4000    0.0280   -2.0520 hn        1 MOL      0.412581
    122 H55         2.6820    1.1810   -2.0250 hn        1 MOL      0.412581
    123 N12         5.6580   -2.5440   -0.8150 n         1 MOL     -0.578224
    124 C39         6.8830   -2.0540   -0.2100 c3        1 MOL      0.291044
    125 C40         7.0050   -0.5510   -0.0120 c         1 MOL      0.393815
    126 O19         7.3430   -0.0550    1.0900 o         1 MOL     -0.504619
    127 C41         8.0770   -2.5270   -1.0570 c3        1 MOL     -0.182208
    128 C42         9.3560   -1.8550   -0.6850 ca        1 MOL      0.084392
    129 C43         9.9280   -2.1420    0.5540 ca        1 MOL     -0.218438
    130 C44         9.8280   -0.8080   -1.5540 ca        1 MOL     -0.218438
    131 C45        11.0500   -1.3890    1.0300 ca        1 MOL     -0.221448
    132 C46        10.8750   -0.0110   -1.0020 ca        1 MOL     -0.221448
    133 C47        11.5130   -0.2640    0.2670 ca        1 MOL      0.312459
    134 O20        12.5420    0.4760    0.7630 oh        1 MOL     -0.503223
    135 H56         5.6880   -3.0050   -1.7080 hn        1 MOL      0.300573
    136 H57         7.0190   -2.5270    0.7600 h1        1 MOL      0.029039
    137 H58         7.7550   -2.1810   -2.0420 hc        1 MOL      0.040331
    138 H59         8.1260   -3.6070   -0.9770 hc        1 MOL      0.040331
    139 H60         9.4250   -2.9100    1.1300 ha        1 MOL      0.159101
    140 H61         9.3940   -0.4970   -2.4880 ha        1 MOL      0.159101
    141 H62        11.4670   -1.5160    2.0170 ha        1 MOL      0.135480
    142 H63        11.2780    0.7660   -1.6240 ha        1 MOL      0.135480
    143 H64        12.4500    1.3400    0.3470 ho        1 MOL      0.374829
    144 N13         6.6530    0.2280   -1.0090 n         1 MOL     -0.168935
    145 C48         6.5960    1.6890   -0.8670 c3        1 MOL      0.024080
    146 C49         5.5700    2.2010    0.2170 c         1 MOL      0.257346
    147 O21         5.6860    3.2970    0.7750 o         1 MOL     -0.490449
    148 C50         6.2130    2.3480   -2.2280 c3        1 MOL      0.287882
    149 C51         7.2110    2.1550   -3.4020 c3        1 MOL     -0.457433
    150 C52         6.7160    2.8980   -4.6590 c         1 MOL      0.859466
    151 O22         5.9010    3.8390   -4.6900 o         1 MOL     -0.771019
    152 O23         7.3310    2.6480   -5.7180 o         1 MOL     -0.771019
    153 H65         6.4990   -0.1980   -1.9200 hn        1 MOL      0.255570
    154 H66         7.5510    2.1410   -0.6020 h1        1 MOL      0.046029
    155 H67         6.2780    3.4020   -1.9460 hc        1 MOL     -0.035504
    156 H68         5.2020    2.1300   -2.5670 hc        1 MOL     -0.035504
    157 H69         7.0770    1.0930   -3.6040 hc        1 MOL      0.051846
    158 H70         8.1990    2.4890   -3.0680 hc        1 MOL      0.051846
    159 N14         4.4900    1.4350    0.4700 n         1 MOL      0.004832
    160 C53         3.5470    1.8150    1.5730 c3        1 MOL     -0.032389
    161 C54         4.1060    1.4190    2.9010 c         1 MOL      0.349649
    162 O24         3.6760    1.9530    3.9970 o         1 MOL     -0.576161
    163 C55         2.2330    1.1140    1.3170 c3        1 MOL      0.103125
    164 C56         1.3980    1.9090    0.3380 c3        1 MOL      0.170575
    165 C57         0.1760    1.0250   -0.0220 c         1 MOL      0.451534
    166 O25        -0.9410    1.5740    0.0200 o         1 MOL     -0.610766
    167 O26         0.2820   -0.1230   -0.4910 o         1 MOL     -0.610766
    168 H71         4.2960    0.5580   -0.0070 hn        1 MOL     -0.183733
    169 H72         3.4430    2.9100    1.6100 h1        1 MOL      0.095499
    170 H73         1.7210    1.0050    2.2720 hc        1 MOL      0.012321
    171 H74         2.3570    0.1600    0.8020 hc        1 MOL      0.012321
    172 H75         1.9520    2.1400   -0.5750 hc        1 MOL     -0.067605
    173 H76         1.1220    2.8750    0.7770 hc        1 MOL     -0.067605
    174 N15         4.9090    0.3710    2.8810 n         1 MOL      0.147346
    175 C58         5.5480   -0.1740    4.1130 c3        1 MOL     -0.317263
    176 H77         5.9140   -1.1810    3.9170 h1        1 MOL      0.097539
    177 H78         6.3820    0.4650    4.4020 h1        1 MOL      0.097539
    178 H79         4.8160   -0.2040    4.9190 h1        1 MOL      0.097539
    179 H80         5.3000   -0.0640    2.0670 hn        1 MOL      0.004052
    180 Ca1        -2.2020   -0.4080   -1.2520 Ca        1 MOL      1.643220
    181 O27        -0.5060   -0.1770   -3.3260 oh        1 MOL     -0.792238
    182 H81         0.3390   -0.3680   -3.7330 ho        1 MOL      0.373149
    183 H82        -0.8240    0.6040   -3.7800 ho        1 MOL      0.373149
@<TRIPOS>BOND
     1    1    2 1   
     2    1    4 1   
     3    1    5 1   
     4    1    6 1   
     5    2    3 2   
     6    2    7 1   
     7    7    8 1   
     8    7   15 1   
     9    8    9 1   
    10    8   11 1   
    11    8   16 1   
    12    9   10 2   
    13    9   19 1   
    14   11   12 1   
    15   11   17 1   
    16   11   18 1   
    17   12   13 1   
    18   12   14 1   
    19   19   20 1   
    20   19   27 1   
    21   20   21 1   
    22   20   23 1   
    23   20   28 1   
    24   21   22 2   
    25   21   38 1   
    26   23   24 1   
    27   23   25 1   
    28   23   29 1   
    29   24   26 1   
    30   24   30 1   
    31   24   31 1   
    32   25   32 1   
    33   25   33 1   
    34   25   34 1   
    35   26   35 1   
    36   26   36 1   
    37   26   37 1   
    38   38   39 1   
    39   38   46 1   
    40   39   40 1   
    41   39   42 1   
    42   39   47 1   
    43   40   41 2   
    44   40   50 1   
    45   42   43 1   
    46   42   48 1   
    47   42   49 1   
    48   43   44 1   
    49   43   45 1   
    50   50   51 1   
    51   50   54 1   
    52   51   52 1   
    53   51   55 1   
    54   51   56 1   
    55   52   53 2   
    56   52   57 1   
    57   57   58 1   
    58   57   65 1   
    59   58   59 1   
    60   58   61 1   
    61   58   66 1   
    62   59   60 2   
    63   59   69 1   
    64   61   62 1   
    65   61   67 1   
    66   61   68 1   
    67   62   63 1   
    68   62   64 1   
    69   69   70 1   
    70   69   73 1   
    71   70   71 1   
    72   70   74 1   
    73   70   75 1   
    74   71   72 2   
    75   71   76 1   
    76   76   77 1   
    77   76   85 1   
    78   77   78 1   
    79   77   80 1   
    80   77   86 1   
    81   78   79 2   
    82   78   93 1   
    83   80   81 1   
    84   80   87 1   
    85   80   88 1   
    86   81   82 1   
    87   81   89 1   
    88   81   90 1   
    89   82   83 1   
    90   82   84 2   
    91   83   91 1   
    92   83   92 1   
    93   93   94 1   
    94   93  100 1   
    95   94   95 1   
    96   94   97 1   
    97   94  101 1   
    98   95   96 2   
    99   95  109 1   
   100   97   98 1   
   101   97   99 1   
   102   97  102 1   
   103   98  103 1   
   104   98  104 1   
   105   98  105 1   
   106   99  106 1   
   107   99  107 1   
   108   99  108 1   
   109  109  110 1   
   110  109  117 1   
   111  110  111 1   
   112  110  113 1   
   113  110  118 1   
   114  111  112 2   
   115  111  123 1   
   116  113  114 1   
   117  113  119 1   
   118  113  120 1   
   119  114  115 1   
   120  114  116 2   
   121  115  121 1   
   122  115  122 1   
   123  123  124 1   
   124  123  135 1   
   125  124  125 1   
   126  124  127 1   
   127  124  136 1   
   128  125  126 2   
   129  125  144 1   
   130  127  128 1   
   131  127  137 1   
   132  127  138 1   
   133  128  129 ar  
   134  128  130 ar  
   135  129  131 ar  
   136  129  139 1   
   137  130  132 ar  
   138  130  140 1   
   139  131  133 ar  
   140  131  141 1   
   141  132  133 ar  
   142  132  142 1   
   143  133  134 1   
   144  134  143 1   
   145  144  145 1   
   146  144  153 1   
   147  145  146 1   
   148  145  148 1   
   149  145  154 1   
   150  146  147 2   
   151  146  159 1   
   152  148  149 1   
   153  148  155 1   
   154  148  156 1   
   155  149  150 1   
   156  149  157 1   
   157  149  158 1   
   158  150  151 1   
   159  150  152 1   
   160  159  160 1   
   161  159  168 1   
   162  160  161 1   
   163  160  163 1   
   164  160  169 1   
   165  161  162 2   
   166  161  174 1   
   167  163  164 1   
   168  163  170 1   
   169  163  171 1   
   170  164  165 1   
   171  164  172 1   
   172  164  173 1   
   173  165  166 1   
   174  165  167 1   
   175  174  175 1   
   176  174  179 1   
   177  175  176 1   
   178  175  177 1   
   179  175  178 1   
   180  181  182 1   
   181  181  183 1   
@<TRIPOS>SUBSTRUCTURE
     1 MOL         1 TEMP              0 ****  ****    0 ROOT
