@<TRIPOS>MOLECULE
MOL
  179   176     1     0     0
SMALL
resp


@<TRIPOS>ATOM
      1 C1         -1.9700   -3.4740    5.6550 c3        1 MOL     -0.391609
      2 C2         -1.4120   -2.9880    4.2630 c         1 MOL      0.764579
      3 O1         -2.1040   -3.3140    3.2660 o         1 MOL     -0.642245
      4 H1         -1.1750   -3.4310    6.4000 hc        1 MOL      0.107377
      5 H2         -2.7910   -2.8260    5.9650 hc        1 MOL      0.107377
      6 H3         -2.3290   -4.4990    5.5660 hc        1 MOL      0.107377
      7 N1         -0.2060   -2.4270    4.1030 n         1 MOL     -0.666283
      8 C3          0.5580   -2.2720    2.8410 c3        1 MOL      0.091352
      9 C4          0.7760   -3.6690    2.1590 c         1 MOL      0.704133
     10 O2          1.3030   -4.5630    2.7850 o         1 MOL     -0.580786
     11 C5          1.9190   -1.5810    3.0090 c3        1 MOL     -0.108997
     12 C6          2.8320   -1.4390    1.8760 c         1 MOL      0.651208
     13 O3          2.4820   -1.8720    0.7400 o         1 MOL     -0.674513
     14 O4          3.9240   -0.8760    2.0880 o         1 MOL     -0.674513
     15 H4          0.3290   -2.3550    4.9670 hn        1 MOL      0.335607
     16 H5         -0.0060   -1.7550    2.0720 h1        1 MOL      0.023050
     17 H6          2.5010   -2.1310    3.7520 hc        1 MOL      0.037721
     18 H7          1.6960   -0.5380    3.2370 hc        1 MOL      0.037721
     19 N2          0.3360   -3.8630    0.9030 n         1 MOL     -0.290341
     20 C7          0.1260   -5.1630    0.2330 c3        1 MOL     -0.011408
     21 C8          1.3980   -5.7000   -0.3810 c         1 MOL      0.385384
     22 O5          1.7310   -6.8990   -0.2630 o         1 MOL     -0.520652
     23 C9         -0.9940   -5.0850   -0.9560 c3        1 MOL     -0.121531
     24 C10        -2.4650   -5.0540   -0.4720 c3        1 MOL      0.080857
     25 C11        -3.4420   -5.0800   -1.6170 c3        1 MOL     -0.154274
     26 C12        -4.8670   -4.8490   -1.0600 c3        1 MOL      0.025965
     27 N3         -5.8000   -4.8560   -2.1900 n4        1 MOL     -0.320659
     28 H8         -0.2070   -3.1150    0.4980 hn        1 MOL      0.129399
     29 H9         -0.1840   -5.8500    1.0140 h1        1 MOL      0.076672
     30 H10        -0.8200   -6.0060   -1.5120 hc        1 MOL      0.042246
     31 H11        -0.7290   -4.2060   -1.5510 hc        1 MOL      0.042246
     32 H12        -2.6130   -4.1680    0.1370 hc        1 MOL      0.051249
     33 H13        -2.6520   -5.9570    0.1180 hc        1 MOL      0.051249
     34 H14        -3.4710   -5.9520   -2.2750 hc        1 MOL      0.057632
     35 H15        -3.1200   -4.2880   -2.2840 hc        1 MOL      0.057632
     36 H16        -4.9080   -3.9360   -0.4690 hx        1 MOL      0.101542
     37 H17        -5.0910   -5.6300   -0.3400 hx        1 MOL      0.101542
     38 H18        -5.7600   -5.6780   -2.7860 hn        1 MOL      0.313506
     39 H19        -6.7290   -4.6330   -1.8860 hn        1 MOL      0.313506
     40 H20        -5.7000   -4.0910   -2.8440 hn        1 MOL      0.313506
     41 N4          2.1080   -4.8160   -1.1130 n         1 MOL     -0.240557
     42 C13         3.3110   -5.1150   -1.8400 c3        1 MOL      0.084607
     43 C14         4.5590   -4.7740   -1.0030 c         1 MOL      0.433059
     44 O6          5.6440   -5.2260   -1.3740 o         1 MOL     -0.560000
     45 C15         3.2890   -4.4030   -3.1890 c3        1 MOL     -0.165472
     46 C16         3.2520   -2.9100   -3.1330 c         1 MOL      0.797843
     47 O7          3.5960   -2.2070   -4.1350 o         1 MOL     -0.749323
     48 O8          2.9680   -2.3040   -2.0990 o         1 MOL     -0.749323
     49 H21         1.7400   -3.8760   -1.1220 hn        1 MOL      0.122288
     50 H22         3.4060   -6.1870   -2.0100 h1        1 MOL      0.075788
     51 H23         2.4400   -4.7410   -3.7990 hc        1 MOL      0.044615
     52 H24         4.2220   -4.6110   -3.7080 hc        1 MOL      0.044615
     53 N5          4.4030   -3.9970    0.0370 n         1 MOL     -0.049994
     54 C17         5.4090   -3.5690    1.0460 c3        1 MOL     -0.422032
     55 C18         6.2430   -2.3250    0.5730 c         1 MOL      0.673544
     56 O9          7.3580   -2.1840    1.0730 o         1 MOL     -0.580514
     57 H25         3.5010   -3.5620    0.1610 hn        1 MOL      0.131461
     58 H26         6.1730   -4.3190    1.2280 h1        1 MOL      0.171633
     59 H27         4.9740   -3.1900    1.9710 h1        1 MOL      0.171633
     60 N6          5.6940   -1.5720   -0.4220 n         1 MOL     -0.376147
     61 C19         6.4410   -0.4070   -0.9830 c3        1 MOL     -0.020541
     62 C20         6.4750    0.8930   -0.0010 c         1 MOL      0.363394
     63 O10         7.0630    1.8840   -0.3860 o         1 MOL     -0.471380
     64 C21         5.9410   -0.1630   -2.4110 c3        1 MOL     -0.278327
     65 C22         4.6910    0.7040   -2.4700 c         1 MOL      0.710224
     66 N7          4.5760    1.7300   -3.3050 n         1 MOL     -0.716542
     67 O11         3.7610    0.5850   -1.6500 o         1 MOL     -0.723711
     68 H28         4.7740   -1.7970   -0.7740 hn        1 MOL      0.233311
     69 H29         7.4880   -0.7000   -0.9980 h1        1 MOL      0.131987
     70 H30         5.7070   -1.1260   -2.8710 hc        1 MOL      0.127183
     71 H31         6.6760    0.3520   -3.0190 hc        1 MOL      0.127183
     72 H32         5.2380    1.9370   -4.0490 hn        1 MOL      0.354613
     73 H33         3.6770    2.1860   -3.3110 hn        1 MOL      0.354613
     74 N8          5.9270    0.8170    1.2260 n         1 MOL     -0.183742
     75 C23         5.9920    1.9530    2.1610 c3        1 MOL     -0.293604
     76 C24         4.7440    2.8530    2.1440 c         1 MOL      0.563300
     77 O12         4.6860    3.8580    2.9150 o         1 MOL     -0.575948
     78 H34         5.3510    0.0170    1.4580 hn        1 MOL      0.265051
     79 H35         6.8510    2.5960    1.9400 h1        1 MOL      0.143329
     80 H36         5.9470    1.5600    3.1740 h1        1 MOL      0.143329
     81 N9          3.8570    2.5300    1.2200 n         1 MOL     -0.374679
     82 C25         2.6400    3.3440    0.9800 c3        1 MOL      0.356342
     83 C26         1.3040    2.5570    0.9900 c         1 MOL      0.451734
     84 O13         1.2780    1.4400    0.4110 o         1 MOL     -0.743072
     85 C27         2.8940    4.1120   -0.3470 c3        1 MOL     -0.361586
     86 C28         4.1460    5.0420   -0.3130 ca        1 MOL      0.357175
     87 C29         5.2920    4.8020   -1.1560 ca        1 MOL     -0.418111
     88 C30         4.1130    6.3080    0.3230 ca        1 MOL     -0.418111
     89 C31         6.2940    5.7830   -1.2600 ca        1 MOL     -0.030361
     90 C32         5.1820    7.1900    0.3650 ca        1 MOL     -0.030361
     91 C33         6.2010    7.0570   -0.5740 ca        1 MOL      0.173178
     92 O14         7.1190    8.0390   -0.7430 oh        1 MOL     -0.504368
     93 H37         4.0020    1.8020    0.5450 hn        1 MOL      0.334077
     94 H38         2.5250    4.0550    1.8020 h1        1 MOL     -0.019920
     95 H39         2.0420    4.7370   -0.5980 hc        1 MOL      0.088005
     96 H40         3.0280    3.4350   -1.1880 hc        1 MOL      0.088005
     97 H41         5.4900    3.8620   -1.6540 ha        1 MOL      0.175010
     98 H42         3.2350    6.5010    0.9180 ha        1 MOL      0.175010
     99 H43         7.1670    5.5920   -1.8670 ha        1 MOL      0.101832
    100 H44         5.1710    8.0720    0.9860 ha        1 MOL      0.101832
    101 H45         7.1740    8.7540   -0.1140 ho        1 MOL      0.396789
    102 N10         0.2370    3.2380    1.3500 n         1 MOL     -0.507839
    103 C34        -1.0970    2.5750    1.3430 c3        1 MOL     -0.036751
    104 C35        -2.0830    3.4310    0.5880 c         1 MOL      0.545288
    105 O15        -2.4850    4.5070    1.0250 o         1 MOL     -0.553871
    106 C36        -1.5140    2.3220    2.7740 c3        1 MOL      0.122606
    107 C37        -0.3150    1.5060    3.4760 c3        1 MOL      0.181918
    108 C38        -2.8100    1.5020    2.8410 c3        1 MOL     -0.196327
    109 C39        -0.6660    1.4010    4.9950 c3        1 MOL     -0.152284
    110 H46         0.2750    4.2400    1.5030 hn        1 MOL      0.335641
    111 H47        -1.0480    1.5910    0.8720 h1        1 MOL      0.132169
    112 H48        -1.6500    3.2230    3.3800 hc        1 MOL      0.002196
    113 H49         0.6170    2.0470    3.3580 hc        1 MOL     -0.018714
    114 H50        -0.3080    0.5460    2.9620 hc        1 MOL     -0.018714
    115 H51        -3.3080    1.6280    3.8090 hc        1 MOL      0.024768
    116 H52        -3.5650    1.8760    2.1500 hc        1 MOL      0.024768
    117 H53        -2.7320    0.4350    2.6320 hc        1 MOL      0.024768
    118 H54        -1.5320    0.7660    5.1670 hc        1 MOL      0.027874
    119 H55         0.2140    0.9090    5.4200 hc        1 MOL      0.027874
    120 H56        -0.8090    2.3720    5.4820 hc        1 MOL      0.027874
    121 N11        -2.5430    3.0050   -0.5550 n         1 MOL     -0.265453
    122 C40        -3.6800    3.6450   -1.3030 c3        1 MOL     -0.087196
    123 C41        -5.1000    3.3820   -0.6200 c         1 MOL      0.487441
    124 O16        -5.2730    2.5680    0.3140 o         1 MOL     -0.389609
    125 C42        -3.6030    3.0150   -2.7320 c3        1 MOL     -0.237342
    126 O17        -4.3370    1.7740   -2.7230 oh        1 MOL     -0.463599
    127 H57        -2.1240    2.1900   -0.9840 hn        1 MOL      0.173529
    128 H58        -3.5060    4.7200   -1.3910 h1        1 MOL      0.123180
    129 H59        -2.5260    2.8990   -2.9000 h1        1 MOL      0.153313
    130 H60        -3.8330    3.6050   -3.6150 h1        1 MOL      0.153313
    131 H61        -4.2590    1.2300   -3.5110 ho        1 MOL      0.409021
    132 N12        -6.0800    4.1100   -1.0990 n         1 MOL     -0.356385
    133 C43        -7.4270    4.0120   -0.6430 c3        1 MOL      0.128700
    134 C44        -8.1220    2.6390   -0.8580 c         1 MOL      0.463666
    135 O18        -8.9980    2.2960   -0.0330 o         1 MOL     -0.514909
    136 C45        -8.2680    5.1190   -1.3220 c3        1 MOL     -0.386153
    137 H62        -5.8220    4.9320   -1.6280 hn        1 MOL      0.258135
    138 H63        -7.3930    4.1530    0.4370 h1        1 MOL      0.072971
    139 H64        -8.4630    4.8550   -2.3570 hc        1 MOL      0.123630
    140 H65        -9.2540    5.1880   -0.8580 hc        1 MOL      0.123630
    141 H66        -7.7520    6.0750   -1.2340 hc        1 MOL      0.123630
    142 N13        -7.6810    1.8310   -1.8270 n         1 MOL     -0.327463
    143 C46        -8.0280    0.3850   -1.9950 c3        1 MOL      0.045524
    144 C47        -7.3020   -0.4510   -0.9680 c         1 MOL      0.433331
    145 O19        -7.8630   -1.3120   -0.3640 o         1 MOL     -0.494922
    146 C48        -7.7570   -0.1910   -3.4210 c3        1 MOL     -0.149323
    147 H67        -6.9590    2.2620   -2.3940 hn        1 MOL      0.185669
    148 H68        -9.0910    0.1920   -1.8300 h1        1 MOL      0.107184
    149 H69        -8.0910    0.4390   -4.2580 hc        1 MOL      0.046536
    150 H70        -6.6790   -0.2700   -3.5930 hc        1 MOL      0.046536
    151 H71        -8.2110   -1.1670   -3.5520 hc        1 MOL      0.046536
    152 N14        -5.9920   -0.1750   -0.7420 n         1 MOL     -0.215587
    153 C49        -5.2640   -0.8680    0.2930 c3        1 MOL     -0.311287
    154 C50        -5.8560   -0.6100    1.6390 c         1 MOL      0.567416
    155 O20        -5.9690   -1.5120    2.3910 o         1 MOL     -0.557257
    156 C51        -3.7980   -0.4960    0.2190 c3        1 MOL     -0.100816
    157 C52        -3.0610   -1.2300   -0.9410 c3        1 MOL      0.048023
    158 C53        -1.5770   -0.9670   -0.9110 c         1 MOL      0.620158
    159 O21        -1.1060    0.1150   -1.3060 o         1 MOL     -0.669395
    160 O22        -0.7540   -1.8000   -0.4710 o         1 MOL     -0.669395
    161 H72        -5.4650    0.4770   -1.3020 hn        1 MOL      0.166461
    162 H73        -5.5090   -1.9160    0.1210 h1        1 MOL      0.137923
    163 H74        -3.3950   -0.8570    1.1730 hc        1 MOL      0.163062
    164 H75        -3.5940    0.5730    0.2190 hc        1 MOL      0.163062
    165 H76        -3.4010   -0.8830   -1.9070 hc        1 MOL     -0.064550
    166 H77        -3.3250   -2.2750   -0.7430 hc        1 MOL     -0.064550
    167 N15        -6.4370    0.5580    1.9060 n         1 MOL     -0.043148
    168 C54        -7.2150    0.7480    3.0910 c3        1 MOL     -0.378989
    169 H78        -8.2540    0.9370    2.8160 h1        1 MOL      0.133276
    170 H79        -7.1610   -0.1480    3.7090 h1        1 MOL      0.133276
    171 H80        -6.8270    1.5990    3.6490 h1        1 MOL      0.133276
    172 H81        -6.4820    1.1910    1.1270 hn        1 MOL      0.130556
    173 Ca1         1.4430   -0.5250   -1.2920 Ca        1 MOL      1.798410
    174 O23         0.8330    1.9410   -2.1490 oh        1 MOL     -0.882980
    175 H82        -0.1030    1.8040   -1.9760 ho        1 MOL      0.413995
    176 H83         0.9450    2.8950   -2.1250 ho        1 MOL      0.413995
    177 O24         1.3060   -0.7290   -3.8760 oh        1 MOL     -0.882980
    178 H84         1.0610   -0.1890   -4.6210 ho        1 MOL      0.413995
    179 H85         2.1430   -1.1270   -4.1310 ho        1 MOL      0.413995
@<TRIPOS>BOND
     1    1    2 1   
     2    1    4 1   
     3    1    5 1   
     4    1    6 1   
     5    2    3 2   
     6    2    7 1   
     7    7    8 1   
     8    7   15 1   
     9    8    9 1   
    10    8   11 1   
    11    8   16 1   
    12    9   10 2   
    13    9   19 1   
    14   11   12 1   
    15   11   17 1   
    16   11   18 1   
    17   12   13 1   
    18   12   14 1   
    19   19   20 1   
    20   19   28 1   
    21   20   21 1   
    22   20   23 1   
    23   20   29 1   
    24   21   22 2   
    25   21   41 1   
    26   23   24 1   
    27   23   30 1   
    28   23   31 1   
    29   24   25 1   
    30   24   32 1   
    31   24   33 1   
    32   25   26 1   
    33   25   34 1   
    34   25   35 1   
    35   26   27 1   
    36   26   36 1   
    37   26   37 1   
    38   27   38 1   
    39   27   39 1   
    40   27   40 1   
    41   41   42 1   
    42   41   49 1   
    43   42   43 1   
    44   42   45 1   
    45   42   50 1   
    46   43   44 2   
    47   43   53 1   
    48   45   46 1   
    49   45   51 1   
    50   45   52 1   
    51   46   47 1   
    52   46   48 1   
    53   53   54 1   
    54   53   57 1   
    55   54   55 1   
    56   54   58 1   
    57   54   59 1   
    58   55   56 2   
    59   55   60 1   
    60   60   61 1   
    61   60   68 1   
    62   61   62 1   
    63   61   64 1   
    64   61   69 1   
    65   62   63 2   
    66   62   74 1   
    67   64   65 1   
    68   64   70 1   
    69   64   71 1   
    70   65   66 1   
    71   65   67 2   
    72   66   72 1   
    73   66   73 1   
    74   74   75 1   
    75   74   78 1   
    76   75   76 1   
    77   75   79 1   
    78   75   80 1   
    79   76   77 2   
    80   76   81 1   
    81   81   82 1   
    82   81   93 1   
    83   82   83 1   
    84   82   85 1   
    85   82   94 1   
    86   83   84 2   
    87   83  102 1   
    88   85   86 1   
    89   85   95 1   
    90   85   96 1   
    91   86   87 ar  
    92   86   88 ar  
    93   87   89 ar  
    94   87   97 1   
    95   88   90 ar  
    96   88   98 1   
    97   89   91 ar  
    98   89   99 1   
    99   90   91 ar  
   100   90  100 1   
   101   91   92 1   
   102   92  101 1   
   103  102  103 1   
   104  102  110 1   
   105  103  104 1   
   106  103  106 1   
   107  103  111 1   
   108  104  105 2   
   109  104  121 1   
   110  106  107 1   
   111  106  108 1   
   112  106  112 1   
   113  107  109 1   
   114  107  113 1   
   115  107  114 1   
   116  108  115 1   
   117  108  116 1   
   118  108  117 1   
   119  109  118 1   
   120  109  119 1   
   121  109  120 1   
   122  121  122 1   
   123  121  127 1   
   124  122  123 1   
   125  122  125 1   
   126  122  128 1   
   127  123  124 2   
   128  123  132 1   
   129  125  126 1   
   130  125  129 1   
   131  125  130 1   
   132  126  131 1   
   133  132  133 1   
   134  132  137 1   
   135  133  134 1   
   136  133  136 1   
   137  133  138 1   
   138  134  135 2   
   139  134  142 1   
   140  136  139 1   
   141  136  140 1   
   142  136  141 1   
   143  142  143 1   
   144  142  147 1   
   145  143  144 1   
   146  143  146 1   
   147  143  148 1   
   148  144  145 2   
   149  144  152 1   
   150  146  149 1   
   151  146  150 1   
   152  146  151 1   
   153  152  153 1   
   154  152  161 1   
   155  153  154 1   
   156  153  156 1   
   157  153  162 1   
   158  154  155 2   
   159  154  167 1   
   160  156  157 1   
   161  156  163 1   
   162  156  164 1   
   163  157  158 1   
   164  157  165 1   
   165  157  166 1   
   166  158  159 1   
   167  158  160 1   
   168  167  168 1   
   169  167  172 1   
   170  168  169 1   
   171  168  170 1   
   172  168  171 1   
   173  174  175 1   
   174  174  176 1   
   175  177  178 1   
   176  177  179 1   
@<TRIPOS>SUBSTRUCTURE
     1 MOL         1 TEMP              0 ****  ****    0 ROOT
