@<TRIPOS>MOLECULE
MOL
  186   183     1     0     0
SMALL
resp


@<TRIPOS>ATOM
      1 C1          0.8420   -1.4140    6.1880 c3        1 MOL     -0.267913
      2 C2          1.1580   -1.3130    4.6660 c         1 MOL      0.670819
      3 O1          0.3630   -1.7960    3.8220 o         1 MOL     -0.576357
      4 H1         -0.2390   -1.4270    6.3330 hc        1 MOL      0.061501
      5 H2          1.2740   -2.3310    6.5890 hc        1 MOL      0.061501
      6 H3          1.2670   -0.5540    6.7050 hc        1 MOL      0.061501
      7 N1          2.3400   -0.8490    4.3530 n         1 MOL     -0.545816
      8 C3          2.9460   -1.0810    3.0450 c3        1 MOL      0.274516
      9 C4          3.3620   -2.5890    2.6870 c         1 MOL      0.406697
     10 O2          4.4610   -2.9350    3.1780 o         1 MOL     -0.549444
     11 C5          4.1170   -0.1480    2.8810 c3        1 MOL     -0.263503
     12 C6          4.8100   -0.2540    1.5540 c         1 MOL      0.970872
     13 O3          6.0610   -0.1060    1.5120 o         1 MOL     -0.727891
     14 O4          4.1120   -0.4600    0.5230 o         1 MOL     -0.727891
     15 H4          2.8600   -0.4070    5.0910 hn        1 MOL      0.316805
     16 H5          2.2920   -0.6560    2.2850 h1        1 MOL     -0.005999
     17 H6          4.8250   -0.2890    3.7080 hc        1 MOL      0.017302
     18 H7          3.7500    0.8800    3.0030 hc        1 MOL      0.017302
     19 N2          2.7230   -3.3790    1.8020 n         1 MOL     -0.282740
     20 C7          3.0210   -4.8310    1.6690 c3        1 MOL     -0.001438
     21 C8          3.7600   -5.1240    0.3500 c         1 MOL      0.481730
     22 O5          4.3690   -6.1730    0.2060 o         1 MOL     -0.568015
     23 C9          1.6970   -5.6880    1.9200 c3        1 MOL      0.115752
     24 C10         1.9170   -7.1790    2.0360 c3        1 MOL     -0.039509
     25 C11         0.6900   -5.5910    0.7800 c3        1 MOL     -0.125472
     26 C12         2.8900   -7.7350    3.1070 c3        1 MOL     -0.184525
     27 H8          1.8520   -3.0380    1.4090 hn        1 MOL      0.227975
     28 H9          3.7680   -5.1700    2.3870 h1        1 MOL      0.081603
     29 H10         1.2250   -5.3600    2.8440 hc        1 MOL      0.015079
     30 H11         2.2630   -7.5270    1.0690 hc        1 MOL      0.026826
     31 H12         0.9650   -7.6920    2.1530 hc        1 MOL      0.026826
     32 H13         0.2680   -4.6040    0.6140 hc        1 MOL      0.024713
     33 H14         1.0510   -5.9130   -0.2000 hc        1 MOL      0.024713
     34 H15        -0.1900   -6.2110    0.9740 hc        1 MOL      0.024713
     35 H16         2.8670   -8.8200    3.0390 hc        1 MOL      0.034912
     36 H17         3.9150   -7.3860    2.9500 hc        1 MOL      0.034912
     37 H18         2.6110   -7.4600    4.1240 hc        1 MOL      0.034912
     38 N3          3.8160   -4.1660   -0.6180 n         1 MOL     -0.184963
     39 C13         4.4630   -4.3350   -1.8650 c3        1 MOL      0.013427
     40 C14         5.8130   -3.6260   -1.9510 c         1 MOL      0.362632
     41 O6          6.5410   -3.7260   -2.9440 o         1 MOL     -0.517481
     42 C15         3.5700   -4.1940   -3.1050 c3        1 MOL     -0.043762
     43 C16         2.7730   -2.9410   -3.1170 c         1 MOL      0.772901
     44 O7          2.9440   -2.1010   -2.1870 o         1 MOL     -0.707376
     45 O8          2.0860   -2.6840   -4.0760 o         1 MOL     -0.707376
     46 H19         3.2700   -3.3230   -0.4880 hn        1 MOL      0.110455
     47 H20         4.7390   -5.3880   -1.8800 h1        1 MOL      0.046812
     48 H21         2.8390   -5.0010   -3.0530 hc        1 MOL      0.000219
     49 H22         4.1580   -4.2980   -4.0220 hc        1 MOL      0.000219
     50 N4          6.1620   -2.8870   -0.9230 n         1 MOL     -0.036594
     51 C17         7.3810   -2.2410   -0.6560 c3        1 MOL     -0.205508
     52 C18         7.6040   -0.9670   -1.5550 c         1 MOL      0.568176
     53 O9          8.4240   -1.0070   -2.4630 o         1 MOL     -0.559375
     54 H23         5.4850   -2.9290   -0.1690 hn        1 MOL      0.144578
     55 H24         8.2050   -2.9430   -0.8090 h1        1 MOL      0.067922
     56 H25         7.4830   -1.9190    0.3760 h1        1 MOL      0.067922
     57 N5          6.8470    0.1230   -1.3360 n         1 MOL     -0.153066
     58 C19         7.0330    1.4710   -1.8220 c3        1 MOL     -0.223048
     59 C20         6.9160    2.6650   -0.8870 c         1 MOL      0.539250
     60 O10         7.1660    3.7890   -1.3350 o         1 MOL     -0.576824
     61 C21         6.0890    1.6390   -3.0420 c3        1 MOL      0.010122
     62 C22         4.6320    1.3440   -2.7670 c         1 MOL      0.446316
     63 O11         4.1170    0.3230   -3.1980 o         1 MOL     -0.597337
     64 O12         3.9450    2.0200   -1.9150 o         1 MOL     -0.597337
     65 H26         6.1280    0.0760   -0.6250 hn        1 MOL      0.048312
     66 H27         8.0870    1.5370   -2.0940 h1        1 MOL      0.101473
     67 H28         6.5040    0.9780   -3.8000 hc        1 MOL      0.029801
     68 H29         6.1710    2.5930   -3.5680 hc        1 MOL      0.029801
     69 N6          6.7170    2.4300    0.3970 n         1 MOL     -0.204436
     70 C23         6.9430    3.4460    1.4210 c3        1 MOL     -0.204814
     71 C24         5.6280    4.2570    1.6260 c         1 MOL      0.567274
     72 O13         5.5190    5.1870    2.3840 o         1 MOL     -0.599023
     73 H30         6.4820    1.5120    0.7290 hn        1 MOL      0.211020
     74 H31         7.7830    4.0710    1.1450 h1        1 MOL      0.106910
     75 H32         7.1480    2.9390    2.3680 h1        1 MOL      0.106910
     76 N7          4.5950    3.8660    0.8640 n         1 MOL     -0.260941
     77 C25         3.1730    4.4370    0.9330 c3        1 MOL      0.085834
     78 C26         2.1040    3.3750    0.8320 c         1 MOL      0.370575
     79 O14         2.2830    2.2350    0.4530 o         1 MOL     -0.551373
     80 C27         2.9900    5.4010   -0.2470 c3        1 MOL      0.084196
     81 C28         3.8020    6.5510    0.0620 c3        1 MOL     -0.079940
     82 C29         3.7040    7.7480   -0.8420 c         1 MOL      0.611365
     83 N8          4.3340    7.6910   -2.0070 n         1 MOL     -0.809431
     84 O15         3.0950    8.7820   -0.4970 o         1 MOL     -0.583062
     85 H33         4.6070    3.0020    0.3400 hn        1 MOL      0.132685
     86 H34         2.9700    5.0030    1.8380 h1        1 MOL      0.064994
     87 H35         1.9550    5.7450   -0.3360 hc        1 MOL     -0.020751
     88 H36         3.3980    4.8880   -1.1210 hc        1 MOL     -0.020751
     89 H37         4.8440    6.2450    0.1400 hc        1 MOL      0.026790
     90 H38         3.3970    6.9140    1.0070 hc        1 MOL      0.026790
     91 H39         4.9110    6.8770   -2.2010 hn        1 MOL      0.372367
     92 H40         4.2150    8.4130   -2.7010 hn        1 MOL      0.372367
     93 N9          0.9120    3.7750    1.1960 n         1 MOL     -0.452810
     94 C30        -0.1990    2.8780    1.4860 c3        1 MOL     -0.012546
     95 C31        -1.4620    3.3250    0.6890 c         1 MOL      0.496199
     96 O16        -1.9620    4.4280    0.9080 o         1 MOL     -0.588586
     97 C32        -0.5240    2.8990    3.0200 c3        1 MOL      0.437730
     98 C33        -1.8290    2.2790    3.4080 c3        1 MOL     -0.456800
     99 C34         0.5560    2.0880    3.8300 c3        1 MOL     -0.456800
    100 H41         0.8700    4.7140    1.5570 hn        1 MOL      0.300563
    101 H42        -0.0090    1.8460    1.1950 h1        1 MOL      0.173422
    102 H43        -0.5000    3.9410    3.3430 hc        1 MOL     -0.060057
    103 H44        -1.9530    1.4460    2.7160 hc        1 MOL      0.095119
    104 H45        -1.8720    1.9900    4.4630 hc        1 MOL      0.095119
    105 H46        -2.5790    2.9760    3.0480 hc        1 MOL      0.095119
    106 H47         0.3330    1.0320    3.7270 hc        1 MOL      0.095119
    107 H48         1.5070    2.1310    3.3000 hc        1 MOL      0.095119
    108 H49         0.4600    2.4080    4.8690 hc        1 MOL      0.095119
    109 N10        -1.9890    2.4120   -0.1090 n         1 MOL     -0.371755
    110 C35        -3.2190    2.5150   -0.9030 c3        1 MOL      0.247223
    111 C36        -4.4380    1.8230   -0.3060 c         1 MOL      0.313334
    112 O17        -4.3430    0.9760    0.5980 o         1 MOL     -0.187565
    113 C37        -2.7610    1.9430   -2.3140 c3        1 MOL     -0.411879
    114 C38        -3.3780    0.5930   -2.7460 c         1 MOL      0.650904
    115 N11        -2.6660   -0.5010   -2.4980 n         1 MOL     -0.711749
    116 O18        -4.5460    0.4480   -3.1120 o         1 MOL     -0.570288
    117 H50        -1.4690    1.5430   -0.1300 hn        1 MOL      0.194313
    118 H51        -3.4440    3.5590   -1.0720 h1        1 MOL      0.046474
    119 H52        -1.6820    1.9840   -2.4390 hc        1 MOL      0.137174
    120 H53        -3.1540    2.6100   -3.0870 hc        1 MOL      0.137174
    121 H54        -1.7400   -0.4660   -2.0900 hn        1 MOL      0.364180
    122 H55        -3.1570   -1.3770   -2.5960 hn        1 MOL      0.364180
    123 N12        -5.5670    2.0890   -0.9110 n         1 MOL     -0.513245
    124 C39        -6.8630    1.6730   -0.3990 c3        1 MOL      0.051028
    125 C40        -7.0830    0.1730   -0.2760 c         1 MOL      0.758463
    126 O19        -7.5610   -0.2370    0.8010 o         1 MOL     -0.575061
    127 C41        -7.9400    2.4250   -1.2270 c3        1 MOL     -0.072038
    128 C42        -9.3270    2.2210   -0.5200 ca        1 MOL     -0.075244
    129 C43        -9.5820    2.8260    0.7020 ca        1 MOL     -0.145005
    130 C44       -10.2150    1.2400   -1.0610 ca        1 MOL     -0.145005
    131 C45       -10.8010    2.7130    1.3240 ca        1 MOL     -0.187735
    132 C46       -11.4170    1.0260   -0.3740 ca        1 MOL     -0.187735
    133 C47       -11.7160    1.8400    0.6990 ca        1 MOL      0.292865
    134 O20       -12.9500    1.7060    1.3100 oh        1 MOL     -0.561099
    135 H56        -5.5320    2.6940   -1.7230 hn        1 MOL      0.304052
    136 H57        -6.9870    2.0640    0.6120 h1        1 MOL      0.098939
    137 H58        -7.9810    2.0690   -2.2610 hc        1 MOL      0.056240
    138 H59        -7.6770    3.4680   -1.3990 hc        1 MOL      0.056240
    139 H60        -8.8610    3.4640    1.1920 ha        1 MOL      0.131836
    140 H61        -9.9870    0.7280   -1.9800 ha        1 MOL      0.131836
    141 H62       -11.0800    3.1190    2.2830 ha        1 MOL      0.133287
    142 H63       -12.1140    0.2720   -0.7020 ha        1 MOL      0.133287
    143 H64       -13.6300    1.1280    0.9440 ho        1 MOL      0.384392
    144 N13        -6.5470   -0.7070   -1.1620 n         1 MOL     -0.631204
    145 C48        -6.4740   -2.1630   -1.0200 c3        1 MOL      0.091061
    146 C49        -5.5410   -2.6620    0.1090 c         1 MOL      0.366556
    147 O21        -5.7210   -3.7450    0.6000 o         1 MOL     -0.519457
    148 C50        -6.0070   -2.7270   -2.3270 c3        1 MOL      0.022265
    149 C51        -7.1640   -2.6910   -3.4480 c3        1 MOL     -0.189950
    150 C52        -6.4610   -3.0420   -4.8080 c         1 MOL      0.725488
    151 O22        -6.1110   -4.2290   -5.0920 o         1 MOL     -0.741299
    152 O23        -6.4390   -2.1440   -5.6410 o         1 MOL     -0.741299
    153 H65        -6.0810   -0.2870   -1.9580 hn        1 MOL      0.339820
    154 H66        -7.4770   -2.5430   -0.8490 h1        1 MOL      0.082458
    155 H67        -5.7390   -3.7910   -2.2730 hc        1 MOL      0.010684
    156 H68        -5.1100   -2.2050   -2.6660 hc        1 MOL      0.010684
    157 H69        -7.5350   -1.6660   -3.5210 hc        1 MOL      0.014822
    158 H70        -7.9920   -3.3650   -3.2220 hc        1 MOL      0.014822
    159 N14        -4.5290   -1.9080    0.5700 n         1 MOL     -0.186534
    160 C53        -3.7410   -2.1110    1.8210 c3        1 MOL      0.008694
    161 C54        -4.4930   -1.5940    2.9920 c         1 MOL      0.467581
    162 O24        -4.4400   -2.1970    4.0510 o         1 MOL     -0.591527
    163 C55        -2.3420   -1.5020    1.7520 c3        1 MOL      0.052197
    164 C56        -1.3620   -2.0140    0.6400 c3        1 MOL     -0.015854
    165 C57        -0.2650   -1.1370    0.0530 c         1 MOL      0.803572
    166 O25         0.9440   -1.4970    0.1300 o         1 MOL     -0.808544
    167 O26        -0.5080   -0.0690   -0.5540 o         1 MOL     -0.808544
    168 H71        -4.4730   -0.9670    0.2020 hn        1 MOL      0.090514
    169 H72        -3.5590   -3.1720    2.0110 h1        1 MOL      0.070930
    170 H73        -1.8010   -1.5000    2.7030 hc        1 MOL     -0.000413
    171 H74        -2.5370   -0.4670    1.4640 hc        1 MOL     -0.000413
    172 H75        -1.8960   -2.4410   -0.2030 hc        1 MOL      0.000173
    173 H76        -0.9090   -2.8690    1.1370 hc        1 MOL      0.000173
    174 N15        -5.2060   -0.4860    2.8670 n         1 MOL      0.026830
    175 C58        -6.1020    0.1190    3.8440 c3        1 MOL     -0.378584
    176 H77        -6.9530   -0.5410    4.0120 h1        1 MOL      0.122859
    177 H78        -5.5690    0.2700    4.7820 h1        1 MOL      0.122859
    178 H79        -6.4560    1.0790    3.4670 h1        1 MOL      0.122859
    179 H80        -5.0560    0.0170    2.0010 hn        1 MOL     -0.056831
    180 Ca1         2.3360    0.1450   -1.2310 Ca        1 MOL      1.769455
    181 O27         0.8390   -0.1550   -3.3360 oh        1 MOL     -0.797481
    182 H81         0.8510   -1.0320   -3.7210 ho        1 MOL      0.375547
    183 H82         0.4230    0.3990   -4.0020 ho        1 MOL      0.375547
    184 O28         1.4210    2.5040   -2.6170 oh        1 MOL     -0.797481
    185 H83         2.2890    2.7360   -2.2590 ho        1 MOL      0.375547
    186 H84         1.1800    3.2530   -3.1510 ho        1 MOL      0.375547
@<TRIPOS>BOND
     1    1    2 1   
     2    1    4 1   
     3    1    5 1   
     4    1    6 1   
     5    2    3 2   
     6    2    7 1   
     7    7    8 1   
     8    7   15 1   
     9    8    9 1   
    10    8   11 1   
    11    8   16 1   
    12    9   10 2   
    13    9   19 1   
    14   11   12 1   
    15   11   17 1   
    16   11   18 1   
    17   12   13 1   
    18   12   14 1   
    19   19   20 1   
    20   19   27 1   
    21   20   21 1   
    22   20   23 1   
    23   20   28 1   
    24   21   22 2   
    25   21   38 1   
    26   23   24 1   
    27   23   25 1   
    28   23   29 1   
    29   24   26 1   
    30   24   30 1   
    31   24   31 1   
    32   25   32 1   
    33   25   33 1   
    34   25   34 1   
    35   26   35 1   
    36   26   36 1   
    37   26   37 1   
    38   38   39 1   
    39   38   46 1   
    40   39   40 1   
    41   39   42 1   
    42   39   47 1   
    43   40   41 2   
    44   40   50 1   
    45   42   43 1   
    46   42   48 1   
    47   42   49 1   
    48   43   44 1   
    49   43   45 1   
    50   50   51 1   
    51   50   54 1   
    52   51   52 1   
    53   51   55 1   
    54   51   56 1   
    55   52   53 2   
    56   52   57 1   
    57   57   58 1   
    58   57   65 1   
    59   58   59 1   
    60   58   61 1   
    61   58   66 1   
    62   59   60 2   
    63   59   69 1   
    64   61   62 1   
    65   61   67 1   
    66   61   68 1   
    67   62   63 1   
    68   62   64 1   
    69   69   70 1   
    70   69   73 1   
    71   70   71 1   
    72   70   74 1   
    73   70   75 1   
    74   71   72 2   
    75   71   76 1   
    76   76   77 1   
    77   76   85 1   
    78   77   78 1   
    79   77   80 1   
    80   77   86 1   
    81   78   79 2   
    82   78   93 1   
    83   80   81 1   
    84   80   87 1   
    85   80   88 1   
    86   81   82 1   
    87   81   89 1   
    88   81   90 1   
    89   82   83 1   
    90   82   84 2   
    91   83   91 1   
    92   83   92 1   
    93   93   94 1   
    94   93  100 1   
    95   94   95 1   
    96   94   97 1   
    97   94  101 1   
    98   95   96 2   
    99   95  109 1   
   100   97   98 1   
   101   97   99 1   
   102   97  102 1   
   103   98  103 1   
   104   98  104 1   
   105   98  105 1   
   106   99  106 1   
   107   99  107 1   
   108   99  108 1   
   109  109  110 1   
   110  109  117 1   
   111  110  111 1   
   112  110  113 1   
   113  110  118 1   
   114  111  112 2   
   115  111  123 1   
   116  113  114 1   
   117  113  119 1   
   118  113  120 1   
   119  114  115 1   
   120  114  116 2   
   121  115  121 1   
   122  115  122 1   
   123  123  124 1   
   124  123  135 1   
   125  124  125 1   
   126  124  127 1   
   127  124  136 1   
   128  125  126 2   
   129  125  144 1   
   130  127  128 1   
   131  127  137 1   
   132  127  138 1   
   133  128  129 ar  
   134  128  130 ar  
   135  129  131 ar  
   136  129  139 1   
   137  130  132 ar  
   138  130  140 1   
   139  131  133 ar  
   140  131  141 1   
   141  132  133 ar  
   142  132  142 1   
   143  133  134 1   
   144  134  143 1   
   145  144  145 1   
   146  144  153 1   
   147  145  146 1   
   148  145  148 1   
   149  145  154 1   
   150  146  147 2   
   151  146  159 1   
   152  148  149 1   
   153  148  155 1   
   154  148  156 1   
   155  149  150 1   
   156  149  157 1   
   157  149  158 1   
   158  150  151 1   
   159  150  152 1   
   160  159  160 1   
   161  159  168 1   
   162  160  161 1   
   163  160  163 1   
   164  160  169 1   
   165  161  162 2   
   166  161  174 1   
   167  163  164 1   
   168  163  170 1   
   169  163  171 1   
   170  164  165 1   
   171  164  172 1   
   172  164  173 1   
   173  165  166 1   
   174  165  167 1   
   175  174  175 1   
   176  174  179 1   
   177  175  176 1   
   178  175  177 1   
   179  175  178 1   
   180  181  182 1   
   181  181  183 1   
   182  184  185 1   
   183  184  186 1   
@<TRIPOS>SUBSTRUCTURE
     1 MOL         1 TEMP              0 ****  ****    0 ROOT
