@<TRIPOS>MOLECULE
MOL
  189   185     1     0     0
SMALL
resp


@<TRIPOS>ATOM
      1 C1         -0.7700   -4.3300    5.6340 c3        1 MOL     -0.261786
      2 C2         -0.0490   -3.7550    4.3790 c         1 MOL      0.728408
      3 O1          0.3550   -2.5820    4.3390 o         1 MOL     -0.639311
      4 H1         -0.4880   -5.3750    5.7670 hc        1 MOL      0.070121
      5 H2         -0.4760   -3.7600    6.5160 hc        1 MOL      0.070121
      6 H3         -1.8490   -4.2600    5.4980 hc        1 MOL      0.070121
      7 N1          0.2640   -4.5780    3.3530 n         1 MOL     -0.600414
      8 C3          1.1540   -4.2300    2.2130 c3        1 MOL      0.121564
      9 C4          0.8850   -5.0750    1.0140 c         1 MOL      0.531808
     10 O2          0.7820   -6.3200    1.1210 o         1 MOL     -0.617303
     11 C5          2.6240   -4.2450    2.5800 c3        1 MOL     -0.016051
     12 C6          3.5200   -3.9200    1.4110 c         1 MOL      0.566551
     13 O3          4.3810   -4.7240    1.0130 o         1 MOL     -0.639355
     14 O4          3.1620   -2.9310    0.7120 o         1 MOL     -0.639355
     15 H4         -0.0560   -5.5370    3.3990 hn        1 MOL      0.303289
     16 H5          0.6880   -3.2940    1.8860 h1        1 MOL      0.077325
     17 H6          3.0540   -5.0450    3.1850 hc        1 MOL     -0.004627
     18 H7          2.7620   -3.4370    3.2860 hc        1 MOL     -0.004627
     19 N2          0.8750   -4.4420   -0.1170 n         1 MOL     -0.185518
     20 C7          0.8210   -5.2280   -1.3920 c3        1 MOL     -0.065991
     21 C8          2.1150   -5.0780   -2.2600 c         1 MOL      0.672043
     22 O5          2.4060   -5.9660   -3.0310 o         1 MOL     -0.618343
     23 C9         -0.4450   -5.0090   -2.1990 c3        1 MOL      0.141677
     24 C10        -1.5560   -5.7410   -1.4030 c3        1 MOL      0.173819
     25 C11        -0.4190   -5.4990   -3.7020 c3        1 MOL     -0.311315
     26 C12        -2.9890   -5.4030   -1.8640 c3        1 MOL     -0.216767
     27 H8          0.8210   -3.4340   -0.1390 hn        1 MOL      0.069092
     28 H9          0.9710   -6.2790   -1.1670 h1        1 MOL      0.078432
     29 H10        -0.6090   -3.9280   -2.1380 hc        1 MOL      0.015733
     30 H11        -1.4690   -5.4760   -0.3520 hc        1 MOL     -0.042612
     31 H12        -1.3280   -6.8040   -1.4550 hc        1 MOL     -0.042612
     32 H13        -0.1590   -6.5500   -3.6800 hc        1 MOL      0.067923
     33 H14        -1.3610   -5.3590   -4.2530 hc        1 MOL      0.067923
     34 H15         0.2940   -4.8960   -4.2630 hc        1 MOL      0.067923
     35 H16        -3.2010   -5.7730   -2.8620 hc        1 MOL      0.040159
     36 H17        -3.6370   -5.8760   -1.1260 hc        1 MOL      0.040159
     37 H18        -3.0060   -4.3160   -1.8310 hc        1 MOL      0.040159
     38 N3          3.0000   -4.0970   -2.0520 n         1 MOL     -0.453854
     39 C13         3.9540   -3.6540   -3.0390 c3        1 MOL     -0.001948
     40 C14         5.3680   -3.3830   -2.5000 c         1 MOL      0.449246
     41 O6          6.2660   -3.3050   -3.3530 o         1 MOL     -0.583827
     42 C15         3.4280   -2.4640   -3.8310 c3        1 MOL     -0.184415
     43 C16         2.8230   -1.3790   -2.9710 c         1 MOL      0.643776
     44 O7          3.2590   -1.2720   -1.7590 o         1 MOL     -0.681991
     45 O8          1.8710   -0.6510   -3.4000 o         1 MOL     -0.681991
     46 H19         2.7730   -3.4630   -1.2990 hn        1 MOL      0.342379
     47 H20         3.9700   -4.4450   -3.7780 h1        1 MOL      0.098434
     48 H21         2.6120   -2.7990   -4.4680 hc        1 MOL      0.057094
     49 H22         4.2310   -2.0630   -4.4560 hc        1 MOL      0.057094
     50 N4          5.5960   -3.4310   -1.2010 n         1 MOL     -0.163861
     51 C17         6.8880   -3.1750   -0.5570 c3        1 MOL     -0.112676
     52 C18         7.4170   -1.7750   -0.7570 c         1 MOL      0.437597
     53 O9          8.5880   -1.5200   -0.5460 o         1 MOL     -0.612857
     54 H23         4.7830   -3.5540   -0.6140 hn        1 MOL      0.139407
     55 H24         7.6160   -3.8310   -1.0420 h1        1 MOL      0.088047
     56 H25         6.9210   -3.4100    0.5140 h1        1 MOL      0.088047
     57 N5          6.5930   -0.8130   -1.1750 n         1 MOL      0.005214
     58 C19         7.1220    0.4370   -1.6760 c3        1 MOL     -0.024420
     59 C20         7.2770    1.5040   -0.6110 c         1 MOL      0.418845
     60 O10         7.8200    2.5730   -0.8530 o         1 MOL     -0.539787
     61 C21         6.1180    1.0380   -2.7270 c3        1 MOL     -0.315590
     62 C22         4.7550    1.4040   -2.0580 c         1 MOL      0.867048
     63 O11         4.4830    1.0200   -0.8790 o         1 MOL     -0.686313
     64 O12         4.0270    2.1330   -2.6960 o         1 MOL     -0.686313
     65 H26         5.6270   -1.0270   -1.3930 hn        1 MOL      0.043777
     66 H27         8.0510    0.2810   -2.2250 h1        1 MOL      0.096510
     67 H28         5.9650    0.2300   -3.4330 hc        1 MOL      0.080970
     68 H29         6.4630    1.9090   -3.2730 hc        1 MOL      0.080970
     69 N6          6.8090    1.2540    0.6130 n         1 MOL     -0.244413
     70 C23         7.1370    2.1320    1.7220 c3        1 MOL     -0.163233
     71 C24         6.2960    3.4150    1.7020 c         1 MOL      0.451156
     72 O13         6.6740    4.4430    2.2700 o         1 MOL     -0.592364
     73 H30         6.1590    0.4860    0.7330 hn        1 MOL      0.188905
     74 H31         8.1960    2.3500    1.6810 h1        1 MOL      0.094578
     75 H32         7.0660    1.5810    2.6590 h1        1 MOL      0.094578
     76 N7          5.1330    3.3150    1.0920 n         1 MOL     -0.097959
     77 C25         4.0110    4.2100    1.1030 c3        1 MOL      0.054746
     78 C26         2.8010    3.4200    1.4870 c         1 MOL      0.421769
     79 O14         2.8510    2.2040    1.6750 o         1 MOL     -0.498952
     80 C27         3.9280    5.0040   -0.2090 c3        1 MOL     -0.132096
     81 C28         5.1060    5.8940   -0.4990 c3        1 MOL     -0.212879
     82 C29         4.7280    7.0520   -1.4530 c         1 MOL      0.729247
     83 N8          5.6180    8.0030   -1.5670 n         1 MOL     -0.840987
     84 O15         3.6620    7.2300   -1.9450 o         1 MOL     -0.563892
     85 H33         4.9040    2.4170    0.6960 hn        1 MOL      0.145328
     86 H34         4.2360    4.8550    1.9600 h1        1 MOL      0.024914
     87 H35         2.9920    5.5650   -0.1910 hc        1 MOL      0.068009
     88 H36         3.8570    4.2330   -0.9820 hc        1 MOL      0.068009
     89 H37         5.9230    5.3050   -0.9270 hc        1 MOL      0.079557
     90 H38         5.4630    6.3330    0.4290 hc        1 MOL      0.079557
     91 H39         6.4930    7.8980   -1.0690 hn        1 MOL      0.353855
     92 H40         5.4060    8.7580   -2.2030 hn        1 MOL      0.353855
     93 N9          1.6090    4.0290    1.6100 n         1 MOL     -0.372263
     94 C30         0.3210    3.3920    2.0020 c3        1 MOL     -0.019896
     95 C31        -0.7600    3.7720    1.0880 c         1 MOL      0.512037
     96 O16        -1.0430    4.9600    0.8970 o         1 MOL     -0.581065
     97 C32         0.0050    3.8150    3.4950 c3        1 MOL      0.291492
     98 C33        -1.3150    3.1300    3.9560 c3        1 MOL     -0.282678
     99 C34         1.1460    3.3890    4.4670 c3        1 MOL     -0.282678
    100 H41         1.6700    5.0280    1.5000 hn        1 MOL      0.256030
    101 H42         0.5120    2.3280    1.9150 h1        1 MOL      0.071005
    102 H43        -0.1020    4.8930    3.5660 hc        1 MOL     -0.040236
    103 H44        -2.1290    3.6150    3.4280 hc        1 MOL      0.055550
    104 H45        -1.1740    2.0620    3.8480 hc        1 MOL      0.055550
    105 H46        -1.3530    3.2840    5.0430 hc        1 MOL      0.055550
    106 H47         1.4220    2.3560    4.2590 hc        1 MOL      0.055550
    107 H48         2.0330    3.9980    4.2790 hc        1 MOL      0.055550
    108 H49         0.8720    3.5450    5.5160 hc        1 MOL      0.055550
    109 N10        -1.2610    2.7940    0.3340 n         1 MOL     -0.338963
    110 C35        -2.4670    2.8580   -0.5530 c3        1 MOL      0.364162
    111 C36        -3.7840    2.7060    0.2800 c         1 MOL      0.026331
    112 O17        -3.7760    2.1910    1.3960 o         1 MOL     -0.262209
    113 C37        -2.2530    1.7920   -1.5930 c3        1 MOL     -0.677790
    114 C38        -3.4250    1.5180   -2.5320 c         1 MOL      0.797319
    115 N11        -3.7330    2.4750   -3.3880 n         1 MOL     -0.770619
    116 O18        -4.1860    0.5800   -2.3920 o         1 MOL     -0.578164
    117 H50        -0.9430    1.8510    0.5350 hn        1 MOL      0.253330
    118 H51        -2.4510    3.8500   -0.9990 h1        1 MOL      0.015805
    119 H52        -2.0900    0.8260   -1.0970 hc        1 MOL      0.216666
    120 H53        -1.3860    2.0650   -2.2020 hc        1 MOL      0.216666
    121 H54        -3.1340    3.2920   -3.3750 hn        1 MOL      0.339750
    122 H55        -4.5960    2.5350   -3.9130 hn        1 MOL      0.339750
    123 N12        -4.9080    3.1440   -0.2150 n         1 MOL     -0.056155
    124 C39        -6.2800    3.0370    0.3680 c3        1 MOL      0.141504
    125 C40        -6.6600    1.5860    0.7220 c         1 MOL      0.206548
    126 O19        -7.2360    1.3550    1.7960 o         1 MOL     -0.537902
    127 C41        -7.2900    3.6560   -0.5170 c3        1 MOL     -0.294066
    128 C42        -7.2980    3.3220   -1.9850 ca        1 MOL     -0.012328
    129 C43        -6.6040    4.1690   -2.8910 ca        1 MOL     -0.117241
    130 C44        -7.9320    2.1500   -2.4230 ca        1 MOL     -0.117241
    131 C45        -6.6650    3.9050   -4.2650 ca        1 MOL     -0.283673
    132 C46        -7.9130    1.8150   -3.7680 ca        1 MOL     -0.283673
    133 C47        -7.2620    2.6890   -4.6950 ca        1 MOL      0.398467
    134 O20        -7.2480    2.3700   -5.9840 oh        1 MOL     -0.571350
    135 H56        -4.8610    3.6920   -1.0630 hn        1 MOL      0.097407
    136 H57        -6.2790    3.6270    1.2810 h1        1 MOL      0.061811
    137 H58        -7.1390    4.7260   -0.3870 hc        1 MOL      0.105714
    138 H59        -8.2540    3.3190   -0.1380 hc        1 MOL      0.105714
    139 H60        -6.1870    5.1090   -2.5450 ha        1 MOL      0.135775
    140 H61        -8.5020    1.5940   -1.6900 ha        1 MOL      0.135775
    141 H62        -6.2010    4.6810   -4.8490 ha        1 MOL      0.139668
    142 H63        -8.4510    1.0140   -4.2480 ha        1 MOL      0.139668
    143 H64        -7.8130    1.6150   -6.1580 ho        1 MOL      0.431986
    144 N13        -6.3360    0.5410   -0.0840 n         1 MOL      0.349823
    145 C48        -6.7280   -0.8740    0.1710 c3        1 MOL     -0.652726
    146 C49        -6.0120   -1.3460    1.4160 c         1 MOL      0.718052
    147 O21        -6.4150   -2.2570    2.0790 o         1 MOL     -0.537490
    148 C50        -6.5010   -1.7890   -1.0140 c3        1 MOL      0.160602
    149 C51        -7.3250   -3.1020   -0.9010 c3        1 MOL     -0.238730
    150 C52        -8.8680   -2.9280   -0.8800 c         1 MOL      0.697961
    151 O22        -9.4290   -1.9970   -1.5460 o         1 MOL     -0.721641
    152 O23        -9.6210   -3.7070   -0.2750 o         1 MOL     -0.721641
    153 H65        -5.7250    0.7090   -0.8760 hn        1 MOL      0.127096
    154 H66        -7.7590   -0.9620    0.5080 h1        1 MOL      0.226060
    155 H67        -5.4310   -1.9880   -1.1630 hc        1 MOL     -0.009965
    156 H68        -6.8630   -1.1900   -1.8420 hc        1 MOL     -0.009965
    157 H69        -6.9900   -3.7050   -0.0580 hc        1 MOL      0.034254
    158 H70        -7.0480   -3.6940   -1.7780 hc        1 MOL      0.034254
    159 N14        -4.7910   -0.8440    1.6660 n         1 MOL     -0.304234
    160 C53        -3.9350   -1.1550    2.7630 c3        1 MOL     -0.104809
    161 C54        -4.3850   -0.4100    4.0170 c         1 MOL      0.413201
    162 O24        -4.6640   -1.0540    5.0420 o         1 MOL     -0.548433
    163 C55        -2.4910   -0.8650    2.3470 c3        1 MOL      0.182605
    164 C56        -1.9800   -1.3200    0.9310 c3        1 MOL     -0.082347
    165 C57        -0.5390   -0.8810    0.6200 c         1 MOL      0.655597
    166 O25         0.1550   -1.5780   -0.1440 o         1 MOL     -0.672565
    167 O26        -0.0170    0.1600    1.0890 o         1 MOL     -0.672565
    168 H71        -4.4620   -0.2430    0.9270 hn        1 MOL      0.221050
    169 H72        -3.9540   -2.2100    3.0100 h1        1 MOL      0.074422
    170 H73        -1.8430   -1.3230    3.1020 hc        1 MOL     -0.041153
    171 H74        -2.3560    0.2130    2.4510 hc        1 MOL     -0.041153
    172 H75        -2.6480   -0.8310    0.2210 hc        1 MOL      0.003144
    173 H76        -2.0180   -2.4140    0.9280 hc        1 MOL      0.003144
    174 N15        -4.5040    0.9260    4.0030 n         1 MOL     -0.014071
    175 C58        -4.9170    1.7510    5.1440 c3        1 MOL     -0.312990
    176 H77        -5.2300    2.7330    4.7870 h1        1 MOL      0.102521
    177 H78        -5.7490    1.2700    5.6580 h1        1 MOL      0.102521
    178 H79        -4.0800    1.8660    5.8320 h1        1 MOL      0.102521
    179 H80        -4.3380    1.3810    3.1170 hn        1 MOL      0.064670
    180 Ca1         2.4670   -0.2950    0.5650 Ca        1 MOL      1.708300
    181 O27         1.9040   -0.8700    3.1360 oh        1 MOL     -0.954846
    182 H81         2.1220   -0.4930    3.9900 ho        1 MOL      0.446911
    183 H82         1.3220   -1.6100    3.3400 ho        1 MOL      0.446911
    184 O28         4.6420   -0.0940    2.3120 oh        1 MOL     -0.954846
    185 H83         5.3360   -0.7070    2.5420 ho        1 MOL      0.446911
    186 H84         4.3010    0.2090    3.1530 ho        1 MOL      0.446911
    187 O29         1.6620    1.3630   -1.5100 oh        1 MOL     -0.954846
    188 H85         1.4920    0.5600   -1.9940 ho        1 MOL      0.446911
    189 H86         2.5790    1.5730   -1.7150 ho        1 MOL      0.446911
@<TRIPOS>BOND
     1    1    2 1   
     2    1    4 1   
     3    1    5 1   
     4    1    6 1   
     5    2    3 2   
     6    2    7 1   
     7    7    8 1   
     8    7   15 1   
     9    8    9 1   
    10    8   11 1   
    11    8   16 1   
    12    9   10 2   
    13    9   19 1   
    14   11   12 1   
    15   11   17 1   
    16   11   18 1   
    17   12   13 1   
    18   12   14 1   
    19   19   20 1   
    20   19   27 1   
    21   20   21 1   
    22   20   23 1   
    23   20   28 1   
    24   21   22 2   
    25   21   38 1   
    26   23   24 1   
    27   23   25 1   
    28   23   29 1   
    29   24   26 1   
    30   24   30 1   
    31   24   31 1   
    32   25   32 1   
    33   25   33 1   
    34   25   34 1   
    35   26   35 1   
    36   26   36 1   
    37   26   37 1   
    38   38   39 1   
    39   38   46 1   
    40   39   40 1   
    41   39   42 1   
    42   39   47 1   
    43   40   41 2   
    44   40   50 1   
    45   42   43 1   
    46   42   48 1   
    47   42   49 1   
    48   43   44 1   
    49   43   45 1   
    50   50   51 1   
    51   50   54 1   
    52   51   52 1   
    53   51   55 1   
    54   51   56 1   
    55   52   53 2   
    56   52   57 1   
    57   57   58 1   
    58   57   65 1   
    59   58   59 1   
    60   58   61 1   
    61   58   66 1   
    62   59   60 2   
    63   59   69 1   
    64   61   62 1   
    65   61   67 1   
    66   61   68 1   
    67   62   63 1   
    68   62   64 1   
    69   69   70 1   
    70   69   73 1   
    71   70   71 1   
    72   70   74 1   
    73   70   75 1   
    74   71   72 2   
    75   71   76 1   
    76   76   77 1   
    77   76   85 1   
    78   77   78 1   
    79   77   80 1   
    80   77   86 1   
    81   78   79 2   
    82   78   93 1   
    83   80   81 1   
    84   80   87 1   
    85   80   88 1   
    86   81   82 1   
    87   81   89 1   
    88   81   90 1   
    89   82   83 1   
    90   82   84 2   
    91   83   91 1   
    92   83   92 1   
    93   93   94 1   
    94   93  100 1   
    95   94   95 1   
    96   94   97 1   
    97   94  101 1   
    98   95   96 2   
    99   95  109 1   
   100   97   98 1   
   101   97   99 1   
   102   97  102 1   
   103   98  103 1   
   104   98  104 1   
   105   98  105 1   
   106   99  106 1   
   107   99  107 1   
   108   99  108 1   
   109  109  110 1   
   110  109  117 1   
   111  110  111 1   
   112  110  113 1   
   113  110  118 1   
   114  111  112 2   
   115  111  123 1   
   116  113  114 1   
   117  113  119 1   
   118  113  120 1   
   119  114  115 1   
   120  114  116 2   
   121  115  121 1   
   122  115  122 1   
   123  123  124 1   
   124  123  135 1   
   125  124  125 1   
   126  124  127 1   
   127  124  136 1   
   128  125  126 2   
   129  125  144 1   
   130  127  128 1   
   131  127  137 1   
   132  127  138 1   
   133  128  129 ar  
   134  128  130 ar  
   135  129  131 ar  
   136  129  139 1   
   137  130  132 ar  
   138  130  140 1   
   139  131  133 ar  
   140  131  141 1   
   141  132  133 ar  
   142  132  142 1   
   143  133  134 1   
   144  134  143 1   
   145  144  145 1   
   146  144  153 1   
   147  145  146 1   
   148  145  148 1   
   149  145  154 1   
   150  146  147 2   
   151  146  159 1   
   152  148  149 1   
   153  148  155 1   
   154  148  156 1   
   155  149  150 1   
   156  149  157 1   
   157  149  158 1   
   158  150  151 1   
   159  150  152 1   
   160  159  160 1   
   161  159  168 1   
   162  160  161 1   
   163  160  163 1   
   164  160  169 1   
   165  161  162 2   
   166  161  174 1   
   167  163  164 1   
   168  163  170 1   
   169  163  171 1   
   170  164  165 1   
   171  164  172 1   
   172  164  173 1   
   173  165  166 1   
   174  165  167 1   
   175  174  175 1   
   176  174  179 1   
   177  175  176 1   
   178  175  177 1   
   179  175  178 1   
   180  181  182 1   
   181  181  183 1   
   182  184  185 1   
   183  184  186 1   
   184  187  188 1   
   185  187  189 1   
@<TRIPOS>SUBSTRUCTURE
     1 MOL         1 TEMP              0 ****  ****    0 ROOT
