@<TRIPOS>MOLECULE
MOL
  189   185     1     0     0
SMALL
resp


@<TRIPOS>ATOM
      1 C1          1.0510   -6.2300    5.4600 c3        1 MOL     -0.350689
      2 C2          1.0970   -5.6440    4.0800 c         1 MOL      0.793209
      3 O1          0.0260   -5.4510    3.5340 o         1 MOL     -0.595104
      4 H1          0.0120   -6.3440    5.7720 hc        1 MOL      0.073304
      5 H2          1.5390   -7.2040    5.4590 hc        1 MOL      0.073304
      6 H3          1.5660   -5.5660    6.1550 hc        1 MOL      0.073304
      7 N1          2.2490   -5.3470    3.5040 n         1 MOL     -0.626623
      8 C3          2.4610   -4.6020    2.2140 c3        1 MOL      0.064483
      9 C4          2.0300   -5.3840    1.0190 c         1 MOL      0.584125
     10 O2          2.3500   -6.5510    0.9470 o         1 MOL     -0.585194
     11 C5          3.9550   -4.3120    2.1360 c3        1 MOL     -0.376547
     12 C6          4.4000   -3.3380    0.9860 c         1 MOL      0.889540
     13 O3          5.6100   -3.0850    0.9570 o         1 MOL     -0.731949
     14 O4          3.6160   -2.7470    0.2210 o         1 MOL     -0.731949
     15 H4          3.0800   -5.5470    4.0320 hn        1 MOL      0.316075
     16 H5          1.9380   -3.6450    2.3240 h1        1 MOL      0.107192
     17 H6          4.4610   -5.2740    2.0750 hc        1 MOL      0.088849
     18 H7          4.2980   -3.9000    3.0780 hc        1 MOL      0.088849
     19 N2          1.4020   -4.7710    0.0200 n         1 MOL     -0.156208
     20 C7          0.9700   -5.3960   -1.2110 c3        1 MOL     -0.249807
     21 C8          1.7020   -4.9120   -2.4870 c         1 MOL      0.562129
     22 O5          1.5550   -5.5250   -3.5370 o         1 MOL     -0.574303
     23 C9         -0.5540   -5.4890   -1.4460 c3        1 MOL      0.346179
     24 C10        -1.1470   -4.0560   -1.6400 c3        1 MOL     -0.003059
     25 C11        -1.2240   -6.0410   -0.2390 c3        1 MOL     -0.321656
     26 C12        -2.5460   -3.8750   -2.1950 c3        1 MOL     -0.352836
     27 H8          1.3000   -3.7730    0.1670 hn        1 MOL      0.107396
     28 H9          1.2480   -6.4470   -1.1690 h1        1 MOL      0.094191
     29 H10        -0.8130   -6.0830   -2.3190 hc        1 MOL     -0.042048
     30 H11        -0.4560   -3.4950   -2.2650 hc        1 MOL      0.053986
     31 H12        -1.1180   -3.5330   -0.6880 hc        1 MOL      0.053986
     32 H13        -0.9570   -5.4520    0.6390 hc        1 MOL      0.062624
     33 H14        -2.2830   -6.0800   -0.4800 hc        1 MOL      0.062624
     34 H15        -0.8810   -7.0510   -0.0360 hc        1 MOL      0.062624
     35 H16        -3.2120   -4.2700   -1.4310 hc        1 MOL      0.092387
     36 H17        -2.6660   -2.7940   -2.2070 hc        1 MOL      0.092387
     37 H18        -2.6950   -4.4540   -3.1100 hc        1 MOL      0.092387
     38 N3          2.4800   -3.7840   -2.4710 n         1 MOL     -0.462389
     39 C13         2.9780   -3.1160   -3.6830 c3        1 MOL      0.052320
     40 C14         4.4160   -2.5090   -3.5640 c         1 MOL      0.397061
     41 O6          4.9960   -2.2470   -4.6270 o         1 MOL     -0.554910
     42 C15         1.9830   -1.9730   -4.0860 c3        1 MOL     -0.295995
     43 C16         1.6800   -0.9320   -2.9880 c         1 MOL      0.852529
     44 O7          2.3420   -0.8520   -1.9600 o         1 MOL     -0.745133
     45 O8          0.6810   -0.2110   -3.2440 o         1 MOL     -0.745133
     46 H19         2.6560   -3.2410   -1.6440 hn        1 MOL      0.303342
     47 H20         3.1230   -3.8380   -4.4920 h1        1 MOL      0.098673
     48 H21         1.0320   -2.3570   -4.4610 hc        1 MOL      0.082157
     49 H22         2.4680   -1.4170   -4.8820 hc        1 MOL      0.082157
     50 N4          5.0070   -2.4160   -2.3700 n         1 MOL     -0.089834
     51 C17         6.4880   -2.1820   -2.2050 c3        1 MOL     -0.162161
     52 C18         7.0280   -0.7850   -2.4460 c         1 MOL      0.475880
     53 O9          8.2670   -0.6150   -2.6880 o         1 MOL     -0.591221
     54 H23         4.4760   -2.6710   -1.5550 hn        1 MOL      0.086039
     55 H24         6.9580   -2.9430   -2.8460 h1        1 MOL      0.096662
     56 H25         6.7090   -2.4610   -1.1790 h1        1 MOL      0.096662
     57 N5          6.0920    0.1910   -2.5310 n         1 MOL     -0.150429
     58 C19         6.2320    1.5780   -2.7880 c3        1 MOL     -0.147170
     59 C20         6.7340    2.5560   -1.6910 c         1 MOL      0.417521
     60 O10         6.8910    3.7590   -1.9720 o         1 MOL     -0.516944
     61 C21         4.8870    2.2080   -3.2460 c3        1 MOL     -0.244585
     62 C22         3.7290    2.1140   -2.1720 c         1 MOL      0.780102
     63 O11         3.8180    1.4260   -1.0820 o         1 MOL     -0.694721
     64 O12         2.6780    2.7560   -2.4680 o         1 MOL     -0.694721
     65 H26         5.1980   -0.1640   -2.2010 hn        1 MOL      0.181900
     66 H27         6.8600    1.7460   -3.6640 h1        1 MOL      0.136701
     67 H28         4.5080    1.7070   -4.1280 hc        1 MOL      0.078614
     68 H29         5.0340    3.2710   -3.4530 hc        1 MOL      0.078614
     69 N6          7.2810    2.0520   -0.6110 n         1 MOL     -0.251614
     70 C23         7.6100    2.8590    0.5850 c3        1 MOL     -0.209675
     71 C24         6.4230    3.5540    1.3450 c         1 MOL      0.527357
     72 O13         6.6500    4.2860    2.3140 o         1 MOL     -0.577346
     73 H30         7.2920    1.0440   -0.5570 hn        1 MOL      0.241732
     74 H31         8.2560    3.7030    0.3570 h1        1 MOL      0.115672
     75 H32         8.1380    2.2310    1.3010 h1        1 MOL      0.115672
     76 N7          5.1660    3.3620    0.9140 n         1 MOL     -0.370902
     77 C25         4.0100    4.1160    1.5200 c3        1 MOL      0.223223
     78 C26         2.9050    3.1530    1.9050 c         1 MOL      0.445765
     79 O14         3.0750    1.8860    1.8770 o         1 MOL     -0.651774
     80 C27         3.4040    5.0900    0.5320 c3        1 MOL     -0.041403
     81 C28         4.4260    6.0890   -0.0600 c3        1 MOL     -0.066928
     82 C29         3.7770    7.3870   -0.4210 c         1 MOL      0.604080
     83 N8          3.1830    7.4690   -1.6280 n         1 MOL     -0.806119
     84 O15         3.8620    8.3500    0.3550 o         1 MOL     -0.582068
     85 H33         4.9880    2.7910    0.1090 hn        1 MOL      0.253010
     86 H34         4.1630    4.7350    2.4020 h1        1 MOL      0.033540
     87 H35         2.6180    5.6870    0.9760 hc        1 MOL      0.016337
     88 H36         3.0410    4.4620   -0.2840 hc        1 MOL      0.016337
     89 H37         4.9670    5.7050   -0.9260 hc        1 MOL      0.036465
     90 H38         5.2080    6.3260    0.6680 hc        1 MOL      0.036465
     91 H39         3.1020    6.6150   -2.1740 hn        1 MOL      0.372803
     92 H40         2.8270    8.3690   -1.9070 hn        1 MOL      0.372803
     93 N9          1.7020    3.6030    2.2340 n         1 MOL     -0.356574
     94 C30         0.5410    2.7690    2.3950 c3        1 MOL     -0.069417
     95 C31        -0.6490    3.3900    1.6460 c         1 MOL      0.353772
     96 O16        -1.0140    4.5740    1.8180 o         1 MOL     -0.537470
     97 C32         0.1430    2.7780    3.9680 c3        1 MOL      0.466703
     98 C33        -1.0010    1.8380    4.3330 c3        1 MOL     -0.424399
     99 C34         1.3330    2.5760    4.8540 c3        1 MOL     -0.424399
    100 H41         1.5910    4.6080    2.2390 hn        1 MOL      0.260505
    101 H42         0.5870    1.7300    2.0690 h1        1 MOL      0.115328
    102 H43        -0.1970    3.7960    4.1670 hc        1 MOL     -0.058315
    103 H44        -1.1300    1.5600    5.3820 hc        1 MOL      0.085265
    104 H45        -1.9600    2.2450    4.0310 hc        1 MOL      0.085265
    105 H46        -0.9860    0.9290    3.7380 hc        1 MOL      0.085265
    106 H47         1.7740    3.5740    4.9350 hc        1 MOL      0.085265
    107 H48         1.0440    2.1060    5.7920 hc        1 MOL      0.085265
    108 H49         2.0320    2.0050    4.2470 hc        1 MOL      0.085265
    109 N10        -1.2770    2.6320    0.7180 n         1 MOL     -0.131998
    110 C35        -2.4850    2.9940   -0.0520 c3        1 MOL     -0.020813
    111 C36        -3.8410    2.7700    0.7870 c         1 MOL      0.290531
    112 O17        -3.8650    2.1660    1.8950 o         1 MOL     -0.290128
    113 C37        -2.4720    2.2870   -1.4260 c3        1 MOL     -0.349389
    114 C38        -2.8600    0.8290   -1.3630 c         1 MOL      0.596174
    115 N11        -1.8720   -0.1140   -1.4550 n         1 MOL     -0.607889
    116 O18        -4.0260    0.4800   -1.2170 o         1 MOL     -0.503065
    117 H50        -0.8130    1.8090    0.3700 hn        1 MOL      0.186687
    118 H51        -2.4440    4.0730   -0.2150 h1        1 MOL      0.089053
    119 H52        -1.4710    2.4300   -1.8330 hc        1 MOL      0.137416
    120 H53        -3.1150    2.7970   -2.1360 hc        1 MOL      0.137416
    121 H54        -0.9400    0.2120   -1.6950 hn        1 MOL      0.330993
    122 H55        -2.0970   -1.0890   -1.3600 hn        1 MOL      0.330993
    123 N12        -5.0350    3.2180    0.2760 n         1 MOL     -0.271162
    124 C39        -6.2530    3.0050    0.9970 c3        1 MOL      0.085208
    125 C40        -6.7110    1.6140    1.2840 c         1 MOL      0.446709
    126 O19        -7.1280    1.3420    2.3920 o         1 MOL     -0.546274
    127 C41        -7.3820    3.7990    0.2130 c3        1 MOL     -0.208668
    128 C42        -7.7810    3.2550   -1.1720 ca        1 MOL      0.163617
    129 C43        -9.0250    2.5980   -1.2280 ca        1 MOL     -0.242362
    130 C44        -7.0030    3.4460   -2.3190 ca        1 MOL     -0.242362
    131 C45        -9.4730    2.0000   -2.4450 ca        1 MOL     -0.240778
    132 C46        -7.5100    2.9040   -3.5560 ca        1 MOL     -0.240778
    133 C47        -8.6790    2.2260   -3.6290 ca        1 MOL      0.272301
    134 O20        -9.0280    1.6390   -4.8490 oh        1 MOL     -0.482596
    135 H56        -5.1250    3.8130   -0.5410 hn        1 MOL      0.227239
    136 H57        -6.0440    3.5010    1.9460 h1        1 MOL      0.047133
    137 H58        -6.9730    4.7870    0.0360 hc        1 MOL      0.050752
    138 H59        -8.3280    3.8220    0.7530 hc        1 MOL      0.050752
    139 H60        -9.5350    2.4160   -0.2990 ha        1 MOL      0.150771
    140 H61        -6.1190    4.0410   -2.1980 ha        1 MOL      0.150771
    141 H62       -10.3230    1.3390   -2.4670 ha        1 MOL      0.170856
    142 H63        -6.9340    3.0250   -4.4610 ha        1 MOL      0.170856
    143 H64        -9.7510    1.0430   -4.6520 ho        1 MOL      0.364509
    144 N13        -6.5940    0.7200    0.2660 n         1 MOL     -0.133285
    145 C48        -6.9470   -0.7480    0.3940 c3        1 MOL     -0.217257
    146 C49        -5.9790   -1.4470    1.4100 c         1 MOL      0.364245
    147 O21        -6.3690   -2.4200    2.1100 o         1 MOL     -0.518112
    148 C50        -6.9850   -1.5530   -0.9040 c3        1 MOL      0.159796
    149 C51        -8.0630   -1.1430   -1.8770 c3        1 MOL     -0.153445
    150 C52        -8.0310   -2.0870   -3.0330 c         1 MOL      0.681928
    151 O22        -8.7190   -3.1110   -2.9540 o         1 MOL     -0.733864
    152 O23        -7.1630   -1.9110   -3.9370 o         1 MOL     -0.733864
    153 H65        -6.1380    1.0800   -0.5570 hn        1 MOL      0.230754
    154 H66        -7.9170   -0.7010    0.8870 h1        1 MOL      0.120842
    155 H67        -7.1670   -2.5990   -0.6590 hc        1 MOL      0.028197
    156 H68        -6.0080   -1.5250   -1.3930 hc        1 MOL      0.028197
    157 H69        -7.9870   -0.1210   -2.2370 hc        1 MOL     -0.012302
    158 H70        -9.0400   -1.2250   -1.4000 hc        1 MOL     -0.012302
    159 N14        -4.7350   -0.9130    1.4220 n         1 MOL     -0.034123
    160 C53        -3.6020   -1.5280    2.1630 c3        1 MOL     -0.250498
    161 C54        -3.5580   -0.9660    3.6020 c         1 MOL      0.464059
    162 O24        -3.1640   -1.6750    4.5630 o         1 MOL     -0.584068
    163 C55        -2.3440   -1.3470    1.4060 c3        1 MOL      0.317245
    164 C56        -1.1390   -2.1720    2.0390 c3        1 MOL     -0.361265
    165 C57         0.1820   -1.6430    1.5320 c         1 MOL      0.706879
    166 O25         0.7200   -2.1240    0.5630 o         1 MOL     -0.736934
    167 O26         0.7560   -0.7090    2.0980 o         1 MOL     -0.736934
    168 H71        -4.5130   -0.2350    0.7200 hn        1 MOL     -0.049354
    169 H72        -3.8000   -2.5920    2.2040 h1        1 MOL      0.144061
    170 H73        -2.1440   -0.2790    1.3880 hc        1 MOL     -0.024557
    171 H74        -2.4870   -1.7730    0.4140 hc        1 MOL     -0.024557
    172 H75        -1.2730   -3.2460    1.9550 hc        1 MOL      0.111568
    173 H76        -0.9460   -1.9450    3.0930 hc        1 MOL      0.111568
    174 N15        -4.0570    0.2160    3.8950 n         1 MOL      0.048419
    175 C58        -4.2950    0.7290    5.2020 c3        1 MOL     -0.334993
    176 H77        -4.6300   -0.0790    5.8520 h1        1 MOL      0.102527
    177 H78        -3.3730    1.1560    5.5980 h1        1 MOL      0.102527
    178 H79        -5.0640    1.5000    5.1550 h1        1 MOL      0.102527
    179 H80        -4.2930    0.8150    3.1120 hn        1 MOL      0.049441
    180 Ca1         2.7140   -0.3320    0.5290 Ca        1 MOL      1.758539
    181 O27         5.6430   -0.4020    0.6720 oh        1 MOL     -0.833518
    182 H81         5.7320   -1.3580    0.6890 ho        1 MOL      0.402827
    183 H82         6.1930   -0.1010    1.3970 ho        1 MOL      0.402827
    184 O28         0.9140    1.3060   -0.7540 oh        1 MOL     -0.833518
    185 H83         1.5210    2.0430   -0.8890 ho        1 MOL      0.402827
    186 H84         0.9530    0.8190   -1.5770 ho        1 MOL      0.402827
    187 O29         3.4630   -0.7980    3.1130 oh        1 MOL     -0.833518
    188 H85         2.6150   -0.7940    3.5480 ho        1 MOL      0.402827
    189 H86         4.0990   -0.8610    3.8180 ho        1 MOL      0.402827
@<TRIPOS>BOND
     1    1    2 1   
     2    1    4 1   
     3    1    5 1   
     4    1    6 1   
     5    2    3 2   
     6    2    7 1   
     7    7    8 1   
     8    7   15 1   
     9    8    9 1   
    10    8   11 1   
    11    8   16 1   
    12    9   10 2   
    13    9   19 1   
    14   11   12 1   
    15   11   17 1   
    16   11   18 1   
    17   12   13 1   
    18   12   14 1   
    19   19   20 1   
    20   19   27 1   
    21   20   21 1   
    22   20   23 1   
    23   20   28 1   
    24   21   22 2   
    25   21   38 1   
    26   23   24 1   
    27   23   25 1   
    28   23   29 1   
    29   24   26 1   
    30   24   30 1   
    31   24   31 1   
    32   25   32 1   
    33   25   33 1   
    34   25   34 1   
    35   26   35 1   
    36   26   36 1   
    37   26   37 1   
    38   38   39 1   
    39   38   46 1   
    40   39   40 1   
    41   39   42 1   
    42   39   47 1   
    43   40   41 2   
    44   40   50 1   
    45   42   43 1   
    46   42   48 1   
    47   42   49 1   
    48   43   44 1   
    49   43   45 1   
    50   50   51 1   
    51   50   54 1   
    52   51   52 1   
    53   51   55 1   
    54   51   56 1   
    55   52   53 2   
    56   52   57 1   
    57   57   58 1   
    58   57   65 1   
    59   58   59 1   
    60   58   61 1   
    61   58   66 1   
    62   59   60 2   
    63   59   69 1   
    64   61   62 1   
    65   61   67 1   
    66   61   68 1   
    67   62   63 1   
    68   62   64 1   
    69   69   70 1   
    70   69   73 1   
    71   70   71 1   
    72   70   74 1   
    73   70   75 1   
    74   71   72 2   
    75   71   76 1   
    76   76   77 1   
    77   76   85 1   
    78   77   78 1   
    79   77   80 1   
    80   77   86 1   
    81   78   79 2   
    82   78   93 1   
    83   80   81 1   
    84   80   87 1   
    85   80   88 1   
    86   81   82 1   
    87   81   89 1   
    88   81   90 1   
    89   82   83 1   
    90   82   84 2   
    91   83   91 1   
    92   83   92 1   
    93   93   94 1   
    94   93  100 1   
    95   94   95 1   
    96   94   97 1   
    97   94  101 1   
    98   95   96 2   
    99   95  109 1   
   100   97   98 1   
   101   97   99 1   
   102   97  102 1   
   103   98  103 1   
   104   98  104 1   
   105   98  105 1   
   106   99  106 1   
   107   99  107 1   
   108   99  108 1   
   109  109  110 1   
   110  109  117 1   
   111  110  111 1   
   112  110  113 1   
   113  110  118 1   
   114  111  112 2   
   115  111  123 1   
   116  113  114 1   
   117  113  119 1   
   118  113  120 1   
   119  114  115 1   
   120  114  116 2   
   121  115  121 1   
   122  115  122 1   
   123  123  124 1   
   124  123  135 1   
   125  124  125 1   
   126  124  127 1   
   127  124  136 1   
   128  125  126 2   
   129  125  144 1   
   130  127  128 1   
   131  127  137 1   
   132  127  138 1   
   133  128  129 ar  
   134  128  130 ar  
   135  129  131 ar  
   136  129  139 1   
   137  130  132 ar  
   138  130  140 1   
   139  131  133 ar  
   140  131  141 1   
   141  132  133 ar  
   142  132  142 1   
   143  133  134 1   
   144  134  143 1   
   145  144  145 1   
   146  144  153 1   
   147  145  146 1   
   148  145  148 1   
   149  145  154 1   
   150  146  147 2   
   151  146  159 1   
   152  148  149 1   
   153  148  155 1   
   154  148  156 1   
   155  149  150 1   
   156  149  157 1   
   157  149  158 1   
   158  150  151 1   
   159  150  152 1   
   160  159  160 1   
   161  159  168 1   
   162  160  161 1   
   163  160  163 1   
   164  160  169 1   
   165  161  162 2   
   166  161  174 1   
   167  163  164 1   
   168  163  170 1   
   169  163  171 1   
   170  164  165 1   
   171  164  172 1   
   172  164  173 1   
   173  165  166 1   
   174  165  167 1   
   175  174  175 1   
   176  174  179 1   
   177  175  176 1   
   178  175  177 1   
   179  175  178 1   
   180  181  182 1   
   181  181  183 1   
   182  184  185 1   
   183  184  186 1   
   184  187  188 1   
   185  187  189 1   
@<TRIPOS>SUBSTRUCTURE
     1 MOL         1 TEMP              0 ****  ****    0 ROOT
