@<TRIPOS>MOLECULE
MOL
  183   181     1     0     0
SMALL
resp


@<TRIPOS>ATOM
      1 C1          0.4610    2.5190   -5.9640 c3        1 MOL     -0.383686
      2 C2          0.8010    2.3150   -4.4440 c         1 MOL      0.797065
      3 O1         -0.0220    2.5710   -3.5550 o         1 MOL     -0.621937
      4 H1          1.3590    2.8310   -6.4980 hc        1 MOL      0.088409
      5 H2          0.0960    1.5810   -6.3840 hc        1 MOL      0.088409
      6 H3         -0.3060    3.2860   -6.0660 hc        1 MOL      0.088409
      7 N1          2.0260    1.8180   -4.1500 n         1 MOL     -0.675132
      8 C3          2.5070    1.6910   -2.7280 c3        1 MOL      0.277182
      9 C4          2.8710    3.0530   -2.2040 c         1 MOL      0.454868
     10 O2          3.7380    3.7150   -2.8220 o         1 MOL     -0.604138
     11 C5          3.7080    0.7410   -2.7280 c3        1 MOL     -0.250856
     12 C6          4.4030    0.5260   -1.4110 c         1 MOL      0.749289
     13 O3          5.5410   -0.0040   -1.4630 o         1 MOL     -0.655810
     14 O4          3.8590    0.7890   -0.2780 o         1 MOL     -0.655810
     15 H4          2.7080    1.5730   -4.8500 hn        1 MOL      0.321965
     16 H5          1.7240    1.2470   -2.1050 h1        1 MOL     -0.005084
     17 H6          4.4890    1.0560   -3.4200 hc        1 MOL      0.054426
     18 H7          3.3810   -0.2250   -3.1180 hc        1 MOL      0.054426
     19 N2          2.2830    3.4570   -1.1320 n         1 MOL     -0.289407
     20 C7          2.5990    4.7100   -0.4320 c3        1 MOL     -0.176042
     21 C8          3.7840    4.6070    0.5680 c         1 MOL      0.626700
     22 O5          4.3320    5.6360    0.9610 o         1 MOL     -0.587043
     23 C9          1.2390    5.2190    0.1230 c3        1 MOL      0.208676
     24 C10         0.0800    5.3150   -0.9630 c3        1 MOL      0.020114
     25 C11         1.3890    6.6660    0.7380 c3        1 MOL     -0.237534
     26 C12        -1.2320    5.9580   -0.5400 c3        1 MOL     -0.103558
     27 H8          1.6150    2.8590   -0.6600 hn        1 MOL      0.304617
     28 H9          2.8630    5.5390   -1.0890 h1        1 MOL      0.088567
     29 H10         0.9410    4.5380    0.9190 hc        1 MOL      0.024583
     30 H11        -0.0780    4.2570   -1.2050 hc        1 MOL      0.005323
     31 H12         0.3920    5.8040   -1.8760 hc        1 MOL      0.005323
     32 H13         2.1680    6.5590    1.4940 hc        1 MOL      0.038676
     33 H14         1.6880    7.4130    0.0040 hc        1 MOL      0.038676
     34 H15         0.5000    7.0260    1.2600 hc        1 MOL      0.038676
     35 H16        -1.9790    5.8330   -1.3170 hc        1 MOL      0.013327
     36 H17        -1.6330    5.5510    0.3910 hc        1 MOL      0.013327
     37 H18        -1.0980    7.0370   -0.4680 hc        1 MOL      0.013327
     38 N3          4.3010    3.3740    0.8580 n         1 MOL     -0.334726
     39 C13         5.4640    3.1590    1.7300 c3        1 MOL      0.072083
     40 C14         6.7690    2.9480    1.0200 c         1 MOL      0.405212
     41 O6          7.7240    3.5980    1.4450 o         1 MOL     -0.559559
     42 C15         5.3670    1.9700    2.6350 c3        1 MOL     -0.250889
     43 C16         4.0400    1.9460    3.4420 c         1 MOL      0.720193
     44 O7          3.9900    2.5150    4.5670 o         1 MOL     -0.707361
     45 O8          3.0980    1.2810    2.9920 o         1 MOL     -0.707361
     46 H19         3.8740    2.5420    0.4760 hn        1 MOL      0.136776
     47 H20         5.6080    3.9560    2.4560 h1        1 MOL      0.074393
     48 H21         6.2640    1.8730    3.2620 hc        1 MOL      0.063922
     49 H22         5.4710    1.0500    2.0680 hc        1 MOL      0.063922
     50 N4          6.8870    2.0750    0.0520 n         1 MOL     -0.113381
     51 C17         8.2030    1.5170   -0.3620 c3        1 MOL     -0.252009
     52 C18         8.5410    0.2110    0.3520 c         1 MOL      0.663540
     53 O9          9.6830   -0.0330    0.7880 o         1 MOL     -0.608909
     54 H23         6.1260    1.6750   -0.4750 hn        1 MOL      0.132612
     55 H24         9.0110    2.2040   -0.0970 h1        1 MOL      0.084582
     56 H25         8.1390    1.3790   -1.4460 h1        1 MOL      0.084582
     57 N5          7.5420   -0.7030    0.3810 n         1 MOL     -0.580749
     58 C19         7.5390   -2.0910    0.8760 c3        1 MOL      0.068384
     59 C20         7.2160   -3.1700   -0.1240 c         1 MOL      0.438609
     60 O10         7.4530   -4.3280    0.1790 o         1 MOL     -0.568790
     61 C21         6.6260   -2.1600    2.0540 c3        1 MOL      0.036758
     62 C22         5.0880   -1.9230    1.7610 c         1 MOL      0.655934
     63 O11         4.3680   -1.7330    2.7900 o         1 MOL     -0.739920
     64 O12         4.6450   -1.9260    0.6100 o         1 MOL     -0.739920
     65 H26         6.6530   -0.3580    0.0180 hn        1 MOL      0.449125
     66 H27         8.5240   -2.3350    1.2820 h1        1 MOL      0.066024
     67 H28         6.9110   -1.4380    2.8110 hc        1 MOL     -0.005244
     68 H29         6.7410   -3.1200    2.5600 hc        1 MOL     -0.005244
     69 N6          6.8160   -2.7880   -1.3520 n         1 MOL     -0.250986
     70 C23         6.5210   -3.6340   -2.4790 c3        1 MOL     -0.018103
     71 C24         5.0730   -4.1700   -2.5250 c         1 MOL      0.470164
     72 O13         4.7440   -4.9000   -3.4290 o         1 MOL     -0.605643
     73 H30         6.7090   -1.7840   -1.4350 hn        1 MOL      0.150008
     74 H31         7.2650   -4.4320   -2.5570 h1        1 MOL      0.060804
     75 H32         6.7350   -3.1580   -3.4310 h1        1 MOL      0.060804
     76 N7          4.1660   -3.8180   -1.6450 n         1 MOL     -0.191797
     77 C25         2.7430   -4.3090   -1.6540 c3        1 MOL     -0.020915
     78 C26         1.6890   -3.1420   -1.4930 c         1 MOL      0.620639
     79 O14         1.9870   -2.1610   -0.8480 o         1 MOL     -0.686902
     80 C27         2.5100   -5.3380   -0.5400 c3        1 MOL     -0.062472
     81 C28         2.9300   -4.9750    0.9780 c3        1 MOL     -0.194022
     82 C29         1.9200   -4.2090    1.8230 c         1 MOL      0.659315
     83 N8          1.0140   -4.8870    2.4680 n         1 MOL     -0.781937
     84 O15         1.8640   -2.9530    1.9050 o         1 MOL     -0.515950
     85 H33         4.3900   -3.1430   -0.9240 hn        1 MOL      0.231237
     86 H34         2.5080   -4.7550   -2.6260 h1        1 MOL      0.065607
     87 H35         3.0330   -6.2190   -0.9180 hc        1 MOL      0.025325
     88 H36         1.4780   -5.6890   -0.4370 hc        1 MOL      0.025325
     89 H37         3.9490   -4.5780    0.9940 hc        1 MOL      0.063628
     90 H38         2.9220   -5.9310    1.4910 hc        1 MOL      0.063628
     91 H39         0.9870   -5.8950    2.5150 hn        1 MOL      0.357800
     92 H40         0.4800   -4.2620    3.0470 hn        1 MOL      0.357800
     93 N9          0.4890   -3.4180   -1.9640 n         1 MOL     -0.452416
     94 C30        -0.5890   -2.3960   -1.8460 c3        1 MOL      0.074316
     95 C31        -1.7880   -2.8680   -1.0670 c         1 MOL      0.346135
     96 O16        -2.5430   -3.7170   -1.6290 o         1 MOL     -0.558927
     97 C32        -0.9990   -1.9420   -3.2090 c3        1 MOL      0.463784
     98 C33        -1.8690   -0.7160   -3.3120 c3        1 MOL     -0.399486
     99 C34         0.1210   -1.8240   -4.2610 c3        1 MOL     -0.399486
    100 H41         0.2870   -4.2260   -2.5310 hn        1 MOL      0.263297
    101 H42        -0.2210   -1.5110   -1.3340 h1        1 MOL      0.145703
    102 H43        -1.6760   -2.7000   -3.6000 hc        1 MOL     -0.087725
    103 H44        -1.2020    0.1140   -3.0560 hc        1 MOL      0.075508
    104 H45        -2.2180   -0.7010   -4.3410 hc        1 MOL      0.075508
    105 H46        -2.6550   -0.7080   -2.5660 hc        1 MOL      0.075508
    106 H47         0.5840   -2.7950   -4.3890 hc        1 MOL      0.075508
    107 H48        -0.3210   -1.5360   -5.2150 hc        1 MOL      0.075508
    108 H49         0.9130   -1.1350   -3.9450 hc        1 MOL      0.075508
    109 N10        -2.0690   -2.3010    0.1100 n         1 MOL     -0.194627
    110 C35        -3.3000   -2.5120    0.8130 c3        1 MOL      0.029173
    111 C36        -4.4930   -1.7910    0.1430 c         1 MOL      0.397190
    112 O17        -4.3100   -0.9620   -0.7440 o         1 MOL     -0.268482
    113 C37        -3.0880   -1.9930    2.2360 c3        1 MOL     -0.317375
    114 C38        -2.1560   -2.9250    3.0400 c         1 MOL      0.797555
    115 N11        -2.7420   -3.9640    3.5330 n         1 MOL     -0.827948
    116 O18        -0.9960   -2.6950    3.1760 o         1 MOL     -0.574504
    117 H50        -1.4150   -1.6540    0.5280 hn        1 MOL      0.193171
    118 H51        -3.6010   -3.5470    0.7120 h1        1 MOL      0.050515
    119 H52        -3.9850   -1.8320    2.8370 hc        1 MOL      0.054258
    120 H53        -2.5760   -1.0270    2.1740 hc        1 MOL      0.054258
    121 H54        -3.7550   -4.0620    3.4810 hn        1 MOL      0.374154
    122 H55        -2.1630   -4.5370    4.1170 hn        1 MOL      0.374154
    123 N12        -5.7320   -2.2840    0.4760 n         1 MOL     -0.512160
    124 C39        -6.9150   -1.6870   -0.0280 c3        1 MOL      0.197900
    125 C40        -7.0010   -0.1450    0.0970 c         1 MOL      0.672774
    126 O19        -7.3380    0.5160   -0.8570 o         1 MOL     -0.550183
    127 C41        -8.1550   -2.3380    0.5640 c3        1 MOL     -0.033287
    128 C42        -9.4960   -1.7940    0.0090 ca        1 MOL     -0.200178
    129 C43        -9.8710   -1.9690   -1.3230 ca        1 MOL      0.027070
    130 C44       -10.3710   -1.0640    0.8070 ca        1 MOL      0.027070
    131 C45       -11.1170   -1.5690   -1.8460 ca        1 MOL     -0.380265
    132 C46       -11.6210   -0.6020    0.3600 ca        1 MOL     -0.380265
    133 C47       -11.9660   -0.8620   -1.0340 ca        1 MOL      0.439231
    134 O20       -13.0980   -0.3900   -1.5720 oh        1 MOL     -0.515311
    135 H56        -5.8030   -3.0860    1.0880 hn        1 MOL      0.283730
    136 H57        -6.9030   -1.8770   -1.1020 h1        1 MOL      0.027578
    137 H58        -8.1110   -2.2980    1.6490 hc        1 MOL      0.024640
    138 H59        -8.1200   -3.4070    0.3480 hc        1 MOL      0.024640
    139 H60        -9.1460   -2.5180   -1.9120 ha        1 MOL      0.087518
    140 H61       -10.0790   -0.9020    1.8320 ha        1 MOL      0.087518
    141 H62       -11.4810   -1.8200   -2.8280 ha        1 MOL      0.164363
    142 H63       -12.2520    0.0120    0.9870 ha        1 MOL      0.164363
    143 H64       -13.7750   -0.0400   -0.9870 ho        1 MOL      0.370325
    144 N13        -6.5970    0.3330    1.2220 n         1 MOL     -0.540143
    145 C48        -6.5760    1.7840    1.5680 c3        1 MOL     -0.042829
    146 C49        -5.5520    2.5720    0.7700 c         1 MOL      0.365747
    147 O21        -5.7140    3.7780    0.6080 o         1 MOL     -0.517602
    148 C50        -6.1290    1.8390    3.0430 c3        1 MOL      0.119860
    149 C51        -4.6910    1.4370    3.3520 c3        1 MOL     -0.310250
    150 C52        -4.4580    1.3880    4.8890 c         1 MOL      0.744020
    151 O22        -3.9280    0.3800    5.3820 o         1 MOL     -0.728242
    152 O23        -4.8270    2.2900    5.6630 o         1 MOL     -0.728242
    153 H65        -6.3500   -0.3710    1.9070 hn        1 MOL      0.279371
    154 H66        -7.6050    2.1570    1.4850 h1        1 MOL      0.092186
    155 H67        -6.7770    1.1770    3.6170 hc        1 MOL     -0.007628
    156 H68        -6.4590    2.7770    3.4710 hc        1 MOL     -0.007628
    157 H69        -3.9140    2.0740    2.9420 hc        1 MOL      0.062870
    158 H70        -4.4370    0.4530    2.9390 hc        1 MOL      0.062870
    159 N14        -4.5420    1.9090    0.2480 n         1 MOL     -0.093826
    160 C53        -3.6430    2.5580   -0.7290 c3        1 MOL     -0.037894
    161 C54        -4.1890    2.5150   -2.1640 c         1 MOL      0.403864
    162 O24        -4.2210    3.5180   -2.8690 o         1 MOL     -0.523999
    163 C55        -2.2440    1.8090   -0.6740 c3        1 MOL      0.016796
    164 C56        -1.4860    1.9010    0.6270 c3        1 MOL     -0.123288
    165 C57        -0.2050    1.0620    0.5180 c         1 MOL      0.751853
    166 O25         0.9690    1.5750    0.4310 o         1 MOL     -0.754449
    167 O26        -0.2920   -0.1770    0.5640 o         1 MOL     -0.754449
    168 H71        -4.4640    0.9170    0.3930 hn        1 MOL      0.248627
    169 H72        -3.4760    3.6000   -0.4450 h1        1 MOL      0.086711
    170 H73        -1.6650    2.2700   -1.4800 hc        1 MOL      0.040696
    171 H74        -2.3890    0.7730   -0.9750 hc        1 MOL      0.040696
    172 H75        -2.1800    1.4670    1.3360 hc        1 MOL      0.033301
    173 H76        -1.1910    2.8970    0.9700 hc        1 MOL      0.033301
    174 N15        -4.8650    1.3710   -2.5130 n         1 MOL     -0.070149
    175 C58        -5.6170    1.1000   -3.7560 c3        1 MOL     -0.118777
    176 H77        -6.4070    0.3770   -3.5520 h1        1 MOL      0.056865
    177 H78        -6.0580    2.0270   -4.1240 h1        1 MOL      0.056865
    178 H79        -4.9410    0.6960   -4.5090 h1        1 MOL      0.056865
    179 H80        -4.8410    0.6370   -1.8110 hn        1 MOL     -0.011091
    180 Ca1         2.4630   -0.5930    1.2580 Ca        1 MOL      1.727346
    181 O27         0.5300   -0.5560    3.4320 oh        1 MOL     -0.863704
    182 H81        -0.1550    0.0460    3.7290 ho        1 MOL      0.421204
    183 H82         0.0660   -1.3670    3.2370 ho        1 MOL      0.421204
@<TRIPOS>BOND
     1    1    2 1   
     2    1    4 1   
     3    1    5 1   
     4    1    6 1   
     5    2    3 2   
     6    2    7 1   
     7    7    8 1   
     8    7   15 1   
     9    8    9 1   
    10    8   11 1   
    11    8   16 1   
    12    9   10 2   
    13    9   19 1   
    14   11   12 1   
    15   11   17 1   
    16   11   18 1   
    17   12   13 1   
    18   12   14 1   
    19   19   20 1   
    20   19   27 1   
    21   20   21 1   
    22   20   23 1   
    23   20   28 1   
    24   21   22 2   
    25   21   38 1   
    26   23   24 1   
    27   23   25 1   
    28   23   29 1   
    29   24   26 1   
    30   24   30 1   
    31   24   31 1   
    32   25   32 1   
    33   25   33 1   
    34   25   34 1   
    35   26   35 1   
    36   26   36 1   
    37   26   37 1   
    38   38   39 1   
    39   38   46 1   
    40   39   40 1   
    41   39   42 1   
    42   39   47 1   
    43   40   41 2   
    44   40   50 1   
    45   42   43 1   
    46   42   48 1   
    47   42   49 1   
    48   43   44 1   
    49   43   45 1   
    50   50   51 1   
    51   50   54 1   
    52   51   52 1   
    53   51   55 1   
    54   51   56 1   
    55   52   53 2   
    56   52   57 1   
    57   57   58 1   
    58   57   65 1   
    59   58   59 1   
    60   58   61 1   
    61   58   66 1   
    62   59   60 2   
    63   59   69 1   
    64   61   62 1   
    65   61   67 1   
    66   61   68 1   
    67   62   63 1   
    68   62   64 1   
    69   69   70 1   
    70   69   73 1   
    71   70   71 1   
    72   70   74 1   
    73   70   75 1   
    74   71   72 2   
    75   71   76 1   
    76   76   77 1   
    77   76   85 1   
    78   77   78 1   
    79   77   80 1   
    80   77   86 1   
    81   78   79 2   
    82   78   93 1   
    83   80   81 1   
    84   80   87 1   
    85   80   88 1   
    86   81   82 1   
    87   81   89 1   
    88   81   90 1   
    89   82   83 1   
    90   82   84 2   
    91   83   91 1   
    92   83   92 1   
    93   93   94 1   
    94   93  100 1   
    95   94   95 1   
    96   94   97 1   
    97   94  101 1   
    98   95   96 2   
    99   95  109 1   
   100   97   98 1   
   101   97   99 1   
   102   97  102 1   
   103   98  103 1   
   104   98  104 1   
   105   98  105 1   
   106   99  106 1   
   107   99  107 1   
   108   99  108 1   
   109  109  110 1   
   110  109  117 1   
   111  110  111 1   
   112  110  113 1   
   113  110  118 1   
   114  111  112 2   
   115  111  123 1   
   116  113  114 1   
   117  113  119 1   
   118  113  120 1   
   119  114  115 1   
   120  114  116 2   
   121  115  121 1   
   122  115  122 1   
   123  123  124 1   
   124  123  135 1   
   125  124  125 1   
   126  124  127 1   
   127  124  136 1   
   128  125  126 2   
   129  125  144 1   
   130  127  128 1   
   131  127  137 1   
   132  127  138 1   
   133  128  129 ar  
   134  128  130 ar  
   135  129  131 ar  
   136  129  139 1   
   137  130  132 ar  
   138  130  140 1   
   139  131  133 ar  
   140  131  141 1   
   141  132  133 ar  
   142  132  142 1   
   143  133  134 1   
   144  134  143 1   
   145  144  145 1   
   146  144  153 1   
   147  145  146 1   
   148  145  148 1   
   149  145  154 1   
   150  146  147 2   
   151  146  159 1   
   152  148  149 1   
   153  148  155 1   
   154  148  156 1   
   155  149  150 1   
   156  149  157 1   
   157  149  158 1   
   158  150  151 1   
   159  150  152 1   
   160  159  160 1   
   161  159  168 1   
   162  160  161 1   
   163  160  163 1   
   164  160  169 1   
   165  161  162 2   
   166  161  174 1   
   167  163  164 1   
   168  163  170 1   
   169  163  171 1   
   170  164  165 1   
   171  164  172 1   
   172  164  173 1   
   173  165  166 1   
   174  165  167 1   
   175  174  175 1   
   176  174  179 1   
   177  175  176 1   
   178  175  177 1   
   179  175  178 1   
   180  181  182 1   
   181  181  183 1   
@<TRIPOS>SUBSTRUCTURE
     1 MOL         1 TEMP              0 ****  ****    0 ROOT
