@<TRIPOS>MOLECULE
MOL
  186   183     1     0     0
SMALL
resp


@<TRIPOS>ATOM
      1 C1         -0.5520    0.0440    6.5590 c3        1 MOL     -0.258547
      2 C2         -0.7630    0.3990    5.0500 c         1 MOL      0.693674
      3 O1          0.1060    1.0380    4.4990 o         1 MOL     -0.574025
      4 H1         -1.5180   -0.1640    7.0200 hc        1 MOL      0.063610
      5 H2          0.0870   -0.8350    6.6410 hc        1 MOL      0.063610
      6 H3         -0.0810    0.8850    7.0680 hc        1 MOL      0.063610
      7 N1         -1.9720    0.0860    4.4950 n         1 MOL     -0.531333
      8 C3         -2.4520    0.5560    3.2270 c3        1 MOL     -0.000197
      9 C4         -2.7340    2.0590    3.1920 c         1 MOL      0.608068
     10 O2         -3.6370    2.6130    3.8520 o         1 MOL     -0.568788
     11 C5         -3.6250   -0.3080    2.8660 c3        1 MOL     -0.160614
     12 C6         -4.3480    0.1430    1.5310 c         1 MOL      0.576869
     13 O3         -3.6460    0.6510    0.5420 o         1 MOL     -0.570742
     14 O4         -5.5910   -0.0080    1.4760 o         1 MOL     -0.570742
     15 H4         -2.5710   -0.5230    5.0320 hn        1 MOL      0.310745
     16 H5         -1.5970    0.3680    2.5750 h1        1 MOL      0.000222
     17 H6         -4.3640   -0.2010    3.6610 hc        1 MOL      0.056435
     18 H7         -3.4580   -1.3830    2.8100 hc        1 MOL      0.056435
     19 N2         -1.9530    2.7780    2.3460 n         1 MOL     -0.362522
     20 C7         -1.9240    4.2560    2.1630 c3        1 MOL      0.060048
     21 C8         -2.8690    4.7160    1.0690 c         1 MOL      0.425530
     22 O5         -3.1960    5.8970    1.0610 o         1 MOL     -0.563200
     23 C9         -0.4800    4.8010    2.0770 c3        1 MOL     -0.219682
     24 C10         0.1020    4.6070    0.6790 c3        1 MOL     -0.215384
     25 C11         1.5950    5.0610    0.5450 c3        1 MOL      0.302546
     26 C12         2.2450    4.5410   -0.7500 c3        1 MOL     -0.020688
     27 N3          1.5290    4.8700   -1.9700 n4        1 MOL     -0.278136
     28 H8         -1.2110    2.2620    1.8790 hn        1 MOL      0.240661
     29 H9         -2.3780    4.7450    3.0260 h1        1 MOL      0.106865
     30 H10         0.1520    4.3160    2.8280 hc        1 MOL      0.083759
     31 H11        -0.4710    5.8720    2.2770 hc        1 MOL      0.083759
     32 H12        -0.4350    5.2760    0.0060 hc        1 MOL      0.120959
     33 H13         0.0240    3.5700    0.3260 hc        1 MOL      0.120959
     34 H14         2.0950    4.5890    1.3880 hc        1 MOL     -0.024511
     35 H15         1.7610    6.1270    0.6250 hc        1 MOL     -0.024511
     36 H16         2.3910    3.4580   -0.6840 hx        1 MOL     -0.035893
     37 H17         3.2340    5.0030   -0.6910 hx        1 MOL     -0.035893
     38 H18         1.4810    5.8700   -2.0900 hn        1 MOL      0.296282
     39 H19         2.0330    4.5090   -2.7640 hn        1 MOL      0.296282
     40 H20         0.6080    4.4470   -2.0160 hn        1 MOL      0.296282
     41 N4         -3.4790    3.8590    0.2920 n         1 MOL     -0.166126
     42 C13        -4.2700    4.1890   -0.9430 c3        1 MOL     -0.196764
     43 C14        -5.6620    3.6500   -0.8420 c         1 MOL      0.538987
     44 O6         -6.4520    3.9700   -1.6710 o         1 MOL     -0.512162
     45 C15        -3.6300    3.5700   -2.1390 c3        1 MOL      0.126425
     46 C16        -2.0760    3.5350   -2.1990 c         1 MOL      0.751983
     47 O7         -1.5840    2.3800   -2.1520 o         1 MOL     -0.775954
     48 O8         -1.3390    4.5180   -2.1540 o         1 MOL     -0.775954
     49 H21        -3.2810    2.8800    0.4130 hn        1 MOL      0.078408
     50 H22        -4.1870    5.2570   -1.1410 h1        1 MOL      0.141387
     51 H23        -3.9270    4.1650   -3.0010 hc        1 MOL     -0.031838
     52 H24        -4.0680    2.5740   -2.1860 hc        1 MOL     -0.031838
     53 N5         -6.0600    2.9880    0.2340 n         1 MOL     -0.345787
     54 C17        -7.4670    2.4280    0.2790 c3        1 MOL     -0.135444
     55 C18        -7.7910    1.3990   -0.8270 c         1 MOL      0.407165
     56 O9         -8.9280    1.4210   -1.3520 o         1 MOL     -0.529007
     57 H25        -5.3830    2.7570    0.9480 hn        1 MOL      0.263152
     58 H26        -8.2360    3.2020    0.2280 h1        1 MOL      0.110585
     59 H27        -7.4880    1.9400    1.2510 h1        1 MOL      0.110585
     60 N6         -6.8200    0.5130   -1.1910 n         1 MOL     -0.111002
     61 C19        -6.9810   -0.5440   -2.1230 c3        1 MOL     -0.045573
     62 C20        -6.9890   -1.9120   -1.4060 c         1 MOL      0.352736
     63 O10        -7.3470   -2.9400   -1.9800 o         1 MOL     -0.500119
     64 C21        -5.8680   -0.4220   -3.1160 c3        1 MOL     -0.083148
     65 C22        -4.4620   -0.3470   -2.5310 c         1 MOL      0.627311
     66 O11        -4.1070   -1.1440   -1.6390 o         1 MOL     -0.690241
     67 O12        -3.6140    0.3500   -3.0890 o         1 MOL     -0.690241
     68 H28        -6.0870    0.4660   -0.5130 hn        1 MOL      0.187698
     69 H29        -7.9630   -0.4690   -2.5860 h1        1 MOL      0.107784
     70 H30        -6.0600    0.4770   -3.6970 hc        1 MOL      0.045833
     71 H31        -6.0150   -1.2010   -3.8560 hc        1 MOL      0.045833
     72 N7         -6.7780   -1.9910   -0.0750 n         1 MOL     -0.168845
     73 C23        -6.6770   -3.1910    0.5950 c3        1 MOL      0.022168
     74 C24        -5.4670   -4.1190    0.2760 c         1 MOL      0.400607
     75 O13        -5.6540   -5.3400    0.4300 o         1 MOL     -0.540733
     76 H32        -6.6150   -1.1410    0.4390 hn        1 MOL      0.157978
     77 H33        -7.6290   -3.7210    0.7040 h1        1 MOL      0.040054
     78 H34        -6.4780   -2.7630    1.5770 h1        1 MOL      0.040054
     79 N8         -4.3890   -3.5610   -0.2670 n         1 MOL     -0.096214
     80 C25        -3.1490   -4.2710   -0.6950 c3        1 MOL     -0.180286
     81 C26        -1.8860   -3.4950   -0.3020 c         1 MOL      0.717909
     82 O14        -1.9160   -2.3130   -0.0300 o         1 MOL     -0.694939
     83 C27        -3.1320   -4.5840   -2.2330 c3        1 MOL      0.338661
     84 C28        -4.3320   -5.2540   -2.8380 c3        1 MOL     -0.376425
     85 O15        -2.9890   -3.3450   -2.9400 oh        1 MOL     -0.620739
     86 H35        -4.4950   -2.6000   -0.5390 hn        1 MOL      0.110301
     87 H36        -3.0290   -5.2090   -0.1570 h1        1 MOL      0.094107
     88 H37        -2.2550   -5.1960   -2.4480 h1        1 MOL      0.022172
     89 H38        -3.4870   -2.7070   -2.4200 ho        1 MOL      0.410396
     90 H39        -5.1300   -4.5190   -2.9260 hc        1 MOL      0.110637
     91 H40        -4.0730   -5.6110   -3.8330 hc        1 MOL      0.110637
     92 H41        -4.6450   -6.0960   -2.2180 hc        1 MOL      0.110637
     93 N9         -0.6640   -4.1490   -0.2380 n         1 MOL     -0.762750
     94 C29         0.5890   -3.6320    0.4240 c3        1 MOL      0.381451
     95 C30         1.6750   -3.6540   -0.6350 c         1 MOL      0.369152
     96 O16         2.0790   -4.7810   -1.0130 o         1 MOL     -0.524806
     97 C31         0.8550   -4.4600    1.7160 c3        1 MOL      0.148845
     98 C32        -0.3090   -4.3890    2.7120 c3        1 MOL     -0.150000
     99 C33         2.2110   -4.2200    2.4190 c3        1 MOL     -0.313182
    100 C34        -0.5810   -2.9950    3.3060 c3        1 MOL      0.038727
    101 H42        -0.5550   -5.1030   -0.5520 hn        1 MOL      0.333463
    102 H43         0.5020   -2.5870    0.7050 h1        1 MOL      0.094953
    103 H44         0.9120   -5.4530    1.2830 hc        1 MOL     -0.025292
    104 H45        -0.0850   -5.1100    3.4960 hc        1 MOL      0.042561
    105 H46        -1.2490   -4.7050    2.2400 hc        1 MOL      0.042561
    106 H47         3.0260   -4.5320    1.7700 hc        1 MOL      0.071997
    107 H48         2.2750   -3.1630    2.7030 hc        1 MOL      0.071997
    108 H49         2.1770   -4.8170    3.3230 hc        1 MOL      0.071997
    109 H50        -1.3360   -3.0560    4.0860 hc        1 MOL      0.000990
    110 H51         0.3160   -2.5700    3.7460 hc        1 MOL      0.000990
    111 H52        -0.8540   -2.3170    2.4890 hc        1 MOL      0.000990
    112 N10         2.2910   -2.4500   -1.0250 n         1 MOL     -0.156062
    113 C35         3.5200   -2.2600   -1.8500 c3        1 MOL      0.068201
    114 C36         4.8720   -2.3060   -1.0710 c         1 MOL      0.348661
    115 O17         4.9270   -2.5550    0.1310 o         1 MOL     -0.329193
    116 C37         3.4700   -0.9480   -2.6050 c3        1 MOL      0.019971
    117 C38         2.1660   -0.7330   -3.4880 c3        1 MOL     -0.620952
    118 O18         3.6280    0.0530   -1.6120 oh        1 MOL     -0.444325
    119 H53         1.9090   -1.6640   -0.5230 hn        1 MOL      0.073717
    120 H54         3.5010   -3.0970   -2.5510 h1        1 MOL      0.079955
    121 H55         4.2640   -0.9100   -3.3490 h1        1 MOL      0.047090
    122 H56         3.4290    0.8960   -2.0260 ho        1 MOL      0.403922
    123 H57         1.8820   -1.6800   -3.9580 hc        1 MOL      0.184106
    124 H58         1.2680   -0.4830   -2.9160 hc        1 MOL      0.184106
    125 H59         2.3300    0.0900   -4.1730 hc        1 MOL      0.184106
    126 N11         5.9420   -2.0690   -1.8760 n         1 MOL     -0.331013
    127 C39         7.3180   -2.1000   -1.4020 c3        1 MOL     -0.018792
    128 C40         7.5080   -1.0700   -0.3050 c         1 MOL      0.195605
    129 O19         8.2560   -1.3410    0.6380 o         1 MOL     -0.461763
    130 C41         8.2860   -1.7870   -2.5410 c3        1 MOL      0.319388
    131 C42         8.2440   -2.9030   -3.6330 c3        1 MOL     -0.575562
    132 O20         7.8480   -0.5270   -3.1360 oh        1 MOL     -0.618223
    133 H60         5.7410   -1.9850   -2.8610 hn        1 MOL      0.256613
    134 H61         7.6670   -3.0530   -0.9960 h1        1 MOL      0.128441
    135 H62         9.2910   -1.5870   -2.1730 h1        1 MOL      0.053882
    136 H63         8.5540    0.1160   -3.0590 ho        1 MOL      0.344908
    137 H64         8.7390   -2.5480   -4.5300 hc        1 MOL      0.176124
    138 H65         8.5760   -3.8500   -3.1970 hc        1 MOL      0.176124
    139 H66         7.1960   -3.1050   -3.8800 hc        1 MOL      0.176124
    140 N12         6.9000    0.0870   -0.4370 n         1 MOL      0.000499
    141 C43         6.9850    1.1570    0.5510 c3        1 MOL     -0.145390
    142 C44         6.0980    1.0120    1.7950 c         1 MOL      0.425865
    143 O21         6.3420    1.4850    2.8530 o         1 MOL     -0.491100
    144 C45         6.5530    2.4850   -0.0680 c3        1 MOL     -0.075856
    145 C46         7.5240    3.0550   -1.0400 c3        1 MOL      0.475799
    146 C47         6.9670    4.2710   -1.6630 c3        1 MOL      0.034729
    147 C48         7.9300    4.7980   -2.6620 c3        1 MOL     -0.276672
    148 N13         8.2020    3.8030   -3.7180 n4        1 MOL     -0.393883
    149 H67         6.3060    0.2300   -1.2450 hn        1 MOL      0.155881
    150 H68         7.9790    1.2870    0.9750 h1        1 MOL      0.124634
    151 H69         6.3090    3.2010    0.7300 hc        1 MOL      0.015668
    152 H70         5.6680    2.2800   -0.6680 hc        1 MOL      0.015668
    153 H71         7.7260    2.2740   -1.7810 hc        1 MOL     -0.142366
    154 H72         8.4650    3.1780   -0.5020 hc        1 MOL     -0.142366
    155 H73         6.6830    4.9770   -0.8680 hc        1 MOL      0.012176
    156 H74         6.1580    3.8270   -2.2210 hc        1 MOL      0.012176
    157 H75         8.7970    5.1490   -2.0980 hx        1 MOL      0.190990
    158 H76         7.4290    5.6760   -3.0700 hx        1 MOL      0.190990
    159 H77         7.3580    3.3230   -3.9970 hn        1 MOL      0.341202
    160 H78         8.6960    4.2030   -4.5040 hn        1 MOL      0.341202
    161 H79         8.7350    3.0360   -3.3190 hn        1 MOL      0.341202
    162 N14         4.9780    0.3160    1.6260 n         1 MOL     -0.134880
    163 C49         4.0780   -0.0200    2.7140 c3        1 MOL     -0.122861
    164 C50         4.6370   -1.1310    3.5980 c         1 MOL      0.544068
    165 O22         4.4540   -1.0430    4.8040 o         1 MOL     -0.528081
    166 C51         2.7240   -0.3540    2.0530 c3        1 MOL      0.088877
    167 C52         2.0750    0.8480    1.3480 c3        1 MOL     -0.145605
    168 C53         0.7720    0.5790    0.5550 c         1 MOL      0.912943
    169 O23         0.8280   -0.2090   -0.4140 o         1 MOL     -0.803688
    170 O24        -0.3250    1.1210    0.6650 o         1 MOL     -0.803688
    171 H80         4.7560   -0.1270    0.7480 hn        1 MOL      0.076120
    172 H81         3.9130    0.8070    3.4040 h1        1 MOL      0.113343
    173 H82         2.0340   -0.6100    2.8500 hc        1 MOL     -0.007379
    174 H83         2.7700   -1.2560    1.4420 hc        1 MOL     -0.007379
    175 H84         2.7900    1.1770    0.5980 hc        1 MOL      0.032290
    176 H85         1.8600    1.6340    2.0780 hc        1 MOL      0.032290
    177 N15         5.3060   -2.1470    2.9880 n         1 MOL     -0.144334
    178 C54         5.9430   -3.1300    3.7150 c3        1 MOL     -0.462667
    179 H86         6.8140   -2.7050    4.2140 h1        1 MOL      0.147632
    180 H87         5.2590   -3.5320    4.4610 h1        1 MOL      0.147632
    181 H88         6.2620   -3.9290    3.0460 h1        1 MOL      0.147632
    182 H89         5.3850   -2.1580    1.9880 hn        1 MOL      0.219432
    183 Ca1        -1.7760    0.0160   -1.1460 Ca        1 MOL      1.763292
    184 O25        -1.2380   -1.1990   -3.3410 oh        1 MOL     -0.851706
    185 H90        -1.7240   -2.0040   -3.5000 ho        1 MOL      0.410624
    186 H91        -0.9170   -0.9460   -4.2080 ho        1 MOL      0.410624
@<TRIPOS>BOND
     1    1    2 1   
     2    1    4 1   
     3    1    5 1   
     4    1    6 1   
     5    2    3 2   
     6    2    7 1   
     7    7    8 1   
     8    7   15 1   
     9    8    9 1   
    10    8   11 1   
    11    8   16 1   
    12    9   10 2   
    13    9   19 1   
    14   11   12 1   
    15   11   17 1   
    16   11   18 1   
    17   12   13 1   
    18   12   14 1   
    19   19   20 1   
    20   19   28 1   
    21   20   21 1   
    22   20   23 1   
    23   20   29 1   
    24   21   22 2   
    25   21   41 1   
    26   23   24 1   
    27   23   30 1   
    28   23   31 1   
    29   24   25 1   
    30   24   32 1   
    31   24   33 1   
    32   25   26 1   
    33   25   34 1   
    34   25   35 1   
    35   26   27 1   
    36   26   36 1   
    37   26   37 1   
    38   27   38 1   
    39   27   39 1   
    40   27   40 1   
    41   41   42 1   
    42   41   49 1   
    43   42   43 1   
    44   42   45 1   
    45   42   50 1   
    46   43   44 2   
    47   43   53 1   
    48   45   46 1   
    49   45   51 1   
    50   45   52 1   
    51   46   47 1   
    52   46   48 1   
    53   53   54 1   
    54   53   57 1   
    55   54   55 1   
    56   54   58 1   
    57   54   59 1   
    58   55   56 2   
    59   55   60 1   
    60   60   61 1   
    61   60   68 1   
    62   61   62 1   
    63   61   64 1   
    64   61   69 1   
    65   62   63 2   
    66   62   72 1   
    67   64   65 1   
    68   64   70 1   
    69   64   71 1   
    70   65   66 1   
    71   65   67 1   
    72   72   73 1   
    73   72   76 1   
    74   73   74 1   
    75   73   77 1   
    76   73   78 1   
    77   74   75 2   
    78   74   79 1   
    79   79   80 1   
    80   79   86 1   
    81   80   81 1   
    82   80   83 1   
    83   80   87 1   
    84   81   82 2   
    85   81   93 1   
    86   83   84 1   
    87   83   85 1   
    88   83   88 1   
    89   84   90 1   
    90   84   91 1   
    91   84   92 1   
    92   85   89 1   
    93   93   94 1   
    94   93  101 1   
    95   94   95 1   
    96   94   97 1   
    97   94  102 1   
    98   95   96 2   
    99   95  112 1   
   100   97   98 1   
   101   97   99 1   
   102   97  103 1   
   103   98  100 1   
   104   98  104 1   
   105   98  105 1   
   106   99  106 1   
   107   99  107 1   
   108   99  108 1   
   109  100  109 1   
   110  100  110 1   
   111  100  111 1   
   112  112  113 1   
   113  112  119 1   
   114  113  114 1   
   115  113  116 1   
   116  113  120 1   
   117  114  115 2   
   118  114  126 1   
   119  116  117 1   
   120  116  118 1   
   121  116  121 1   
   122  117  123 1   
   123  117  124 1   
   124  117  125 1   
   125  118  122 1   
   126  126  127 1   
   127  126  133 1   
   128  127  128 1   
   129  127  130 1   
   130  127  134 1   
   131  128  129 2   
   132  128  140 1   
   133  130  131 1   
   134  130  132 1   
   135  130  135 1   
   136  131  137 1   
   137  131  138 1   
   138  131  139 1   
   139  132  136 1   
   140  140  141 1   
   141  140  149 1   
   142  141  142 1   
   143  141  144 1   
   144  141  150 1   
   145  142  143 2   
   146  142  162 1   
   147  144  145 1   
   148  144  151 1   
   149  144  152 1   
   150  145  146 1   
   151  145  153 1   
   152  145  154 1   
   153  146  147 1   
   154  146  155 1   
   155  146  156 1   
   156  147  148 1   
   157  147  157 1   
   158  147  158 1   
   159  148  159 1   
   160  148  160 1   
   161  148  161 1   
   162  162  163 1   
   163  162  171 1   
   164  163  164 1   
   165  163  166 1   
   166  163  172 1   
   167  164  165 2   
   168  164  177 1   
   169  166  167 1   
   170  166  173 1   
   171  166  174 1   
   172  167  168 1   
   173  167  175 1   
   174  167  176 1   
   175  168  169 1   
   176  168  170 1   
   177  177  178 1   
   178  177  182 1   
   179  178  179 1   
   180  178  180 1   
   181  178  181 1   
   182  184  185 1   
   183  184  186 1   
@<TRIPOS>SUBSTRUCTURE
     1 MOL         1 TEMP              0 ****  ****    0 ROOT
