@<TRIPOS>MOLECULE
MOL
  189   185     1     0     0
SMALL
resp


@<TRIPOS>ATOM
      1 C1         -0.0480    2.8430   -5.0060 c3        1 MOL     -0.250911
      2 C2          0.5100    2.4340   -3.6150 c         1 MOL      0.670936
      3 O1         -0.1290    2.5350   -2.6370 o         1 MOL     -0.537761
      4 H1         -1.1370    2.8720   -4.9650 hc        1 MOL      0.056359
      5 H2          0.3320    3.8280   -5.2750 hc        1 MOL      0.056359
      6 H3          0.2680    2.1150   -5.7530 hc        1 MOL      0.056359
      7 N1          1.7970    2.0700   -3.6320 n         1 MOL     -0.651089
      8 C3          2.5540    1.6470   -2.3840 c3        1 MOL      0.399333
      9 C4          3.1910    2.8470   -1.5980 c         1 MOL      0.336195
     10 O2          4.4230    2.9830   -1.5170 o         1 MOL     -0.427920
     11 C5          3.6470    0.6650   -2.7980 c3        1 MOL     -0.256527
     12 C6          4.4140    0.0290   -1.5800 c         1 MOL      0.711337
     13 O3          3.8620    0.2120   -0.4540 o         1 MOL     -0.625705
     14 O4          5.4750   -0.5940   -1.6970 o         1 MOL     -0.625705
     15 H4          2.3140    2.1700   -4.4970 hn        1 MOL      0.329539
     16 H5          1.9530    1.0810   -1.6710 h1        1 MOL     -0.056099
     17 H6          4.3870    1.1590   -3.4170 hc        1 MOL      0.038518
     18 H7          3.1650   -0.1540   -3.3220 hc        1 MOL      0.038518
     19 N2          2.2760    3.6370   -0.9950 n         1 MOL     -0.396405
     20 C7          2.6680    5.0110   -0.5900 c3        1 MOL      0.054830
     21 C8          3.6390    5.1200    0.5770 c         1 MOL      0.450260
     22 O5          4.2130    6.1570    0.7650 o         1 MOL     -0.570257
     23 C9          1.4020    5.9130   -0.3740 c3        1 MOL     -0.383096
     24 C10         0.7050    6.4160   -1.6200 c3        1 MOL      0.517152
     25 C11        -0.3290    7.5200   -1.1910 c3        1 MOL     -0.203930
     26 C12        -1.0820    8.1810   -2.4010 c3        1 MOL      0.059267
     27 N3         -1.6800    7.1210   -3.2540 n4        1 MOL     -0.449162
     28 H8          1.2790    3.4750   -1.0290 hn        1 MOL      0.348556
     29 H9          3.2410    5.3810   -1.4440 h1        1 MOL      0.076475
     30 H10         1.6300    6.7980    0.2170 hc        1 MOL      0.099606
     31 H11         0.6540    5.3020    0.1490 hc        1 MOL      0.099606
     32 H12         0.2530    5.5280   -2.0470 hc        1 MOL     -0.122022
     33 H13         1.3720    6.7340   -2.4260 hc        1 MOL     -0.122022
     34 H14         0.2580    8.3260   -0.7360 hc        1 MOL      0.076308
     35 H15        -1.1040    7.0610   -0.5640 hc        1 MOL      0.076308
     36 H16        -0.4040    8.8750   -2.9050 hx        1 MOL      0.080766
     37 H17        -1.8260    8.8360   -1.9630 hx        1 MOL      0.080766
     38 H18        -2.4050    7.5190   -3.8400 hn        1 MOL      0.353464
     39 H19        -0.9970    6.6550   -3.8380 hn        1 MOL      0.353464
     40 H20        -2.1610    6.4410   -2.6870 hn        1 MOL      0.353464
     41 N4          3.7500    4.0140    1.2720 n         1 MOL     -0.078132
     42 C13         4.6180    3.7530    2.3920 c3        1 MOL      0.049517
     43 C14         5.7420    2.7540    2.1540 c         1 MOL      0.272599
     44 O6          6.5710    2.4670    3.0790 o         1 MOL     -0.506336
     45 C15         3.7640    3.3830    3.5910 c3        1 MOL     -0.286646
     46 C16         2.8120    2.1660    3.4500 c         1 MOL      0.799036
     47 O7          1.8580    1.9720    4.2880 o         1 MOL     -0.725200
     48 O8          2.8480    1.5780    2.3530 o         1 MOL     -0.725200
     49 H21         3.2320    3.2310    0.9090 hn        1 MOL      0.138282
     50 H22         5.0750    4.7220    2.6260 h1        1 MOL      0.083921
     51 H23         3.0410    4.1560    3.8240 hc        1 MOL      0.066327
     52 H24         4.4100    3.1910    4.4470 hc        1 MOL      0.066327
     53 N5          5.7620    2.1060    1.0010 n         1 MOL      0.146190
     54 C17         6.9760    1.5030    0.4160 c3        1 MOL     -0.184589
     55 C18         7.3500    0.2540    1.2310 c         1 MOL      0.483719
     56 O9          8.4770   -0.0790    1.5140 o         1 MOL     -0.548940
     57 H25         5.0590    2.3840    0.3290 hn        1 MOL     -0.067257
     58 H26         7.7370    2.2800    0.4940 h1        1 MOL      0.105588
     59 H27         6.7600    1.1950   -0.6030 h1        1 MOL      0.105588
     60 N6          6.3480   -0.5820    1.5970 n         1 MOL     -0.191244
     61 C19         6.6130   -1.9340    2.0640 c3        1 MOL      0.117940
     62 C20         6.9190   -2.9730    1.0050 c         1 MOL      0.371348
     63 O10         7.5140   -4.0110    1.2860 o         1 MOL     -0.541860
     64 C21         5.5600   -2.4360    3.0410 c3        1 MOL     -0.365157
     65 C22         4.1370   -2.1180    2.6090 c         1 MOL      0.824381
     66 O11         3.8060   -2.3450    1.4370 o         1 MOL     -0.728551
     67 O12         3.3410   -1.6110    3.3800 o         1 MOL     -0.728551
     68 H28         5.4090   -0.3720    1.3090 hn        1 MOL      0.051484
     69 H29         7.5320   -2.0320    2.6430 h1        1 MOL      0.092790
     70 H30         5.7340   -2.0940    4.0630 hc        1 MOL      0.104005
     71 H31         5.6040   -3.5150    2.9770 hc        1 MOL      0.104005
     72 N7          6.4600   -2.7820   -0.2350 n         1 MOL     -0.043074
     73 C23         6.5000   -3.6800   -1.3720 c3        1 MOL     -0.082548
     74 C24         5.2020   -4.3330   -1.5860 c         1 MOL      0.549344
     75 O13         5.1830   -5.4220   -2.2390 o         1 MOL     -0.596133
     76 H32         5.8070   -2.0250   -0.3510 hn        1 MOL      0.040947
     77 H33         7.2430   -4.4380   -1.1340 h1        1 MOL      0.072977
     78 H34         6.8270   -3.1400   -2.2660 h1        1 MOL      0.072977
     79 N8          4.0800   -3.8010   -1.0550 n         1 MOL     -0.257782
     80 C25         2.6670   -4.3820   -1.0480 c3        1 MOL     -0.127961
     81 C26         1.6000   -3.3210   -1.1930 c         1 MOL      0.556354
     82 O14         1.8170   -2.2350   -0.6620 o         1 MOL     -0.561424
     83 C27         2.4300   -5.3610    0.1830 c3        1 MOL      0.546390
     84 C28         2.9550   -6.7690   -0.0260 c3        1 MOL     -0.425561
     85 O15         3.0970   -4.9110    1.3480 oh        1 MOL     -0.625245
     86 H35         4.1340   -2.8200   -0.8100 hn        1 MOL      0.224608
     87 H36         2.5400   -4.9450   -1.9700 h1        1 MOL      0.058404
     88 H37         1.3580   -5.4210    0.3780 h1        1 MOL     -0.068931
     89 H38         3.1740   -3.9570    1.2460 ho        1 MOL      0.356087
     90 H39         2.5080   -7.1940   -0.9230 hc        1 MOL      0.103789
     91 H40         4.0330   -6.9120   -0.0780 hc        1 MOL      0.103789
     92 H41         2.5030   -7.2860    0.8180 hc        1 MOL      0.103789
     93 N9          0.4790   -3.6840   -1.7020 n         1 MOL     -0.512675
     94 C29        -0.6410   -2.8760   -2.1060 c3        1 MOL     -0.027464
     95 C30        -1.9330   -3.4560   -1.5040 c         1 MOL      0.608565
     96 O16        -2.1430   -4.6060   -1.7180 o         1 MOL     -0.569360
     97 C31        -0.8890   -2.8730   -3.6590 c3        1 MOL      0.150784
     98 C32         0.3230   -1.9900   -4.2860 c3        1 MOL      0.187645
     99 C33        -2.2670   -2.2560   -4.0500 c3        1 MOL     -0.336748
    100 C34         0.5650   -1.9840   -5.7670 c3        1 MOL     -0.299506
    101 H42         0.4620   -4.5850   -2.1710 hn        1 MOL      0.291121
    102 H43        -0.5520   -1.8850   -1.6740 h1        1 MOL      0.090662
    103 H44        -0.8230   -3.8860   -4.0480 hc        1 MOL      0.004495
    104 H45         1.1330   -2.4650   -3.7260 hc        1 MOL     -0.018778
    105 H46         0.2340   -0.9700   -3.9180 hc        1 MOL     -0.018778
    106 H47        -2.2110   -1.9740   -5.1060 hc        1 MOL      0.069005
    107 H48        -3.0690   -2.9920   -3.9600 hc        1 MOL      0.069005
    108 H49        -2.3740   -1.3470   -3.4640 hc        1 MOL      0.069005
    109 H50        -0.3050   -1.5060   -6.2160 hc        1 MOL      0.066423
    110 H51         1.4340   -1.3410   -5.9420 hc        1 MOL      0.066423
    111 H52         0.7560   -2.9870   -6.1290 hc        1 MOL      0.066423
    112 N10        -2.6540   -2.6450   -0.7610 n         1 MOL     -0.257894
    113 C35        -3.8000   -2.9920    0.0140 c3        1 MOL      0.004100
    114 C36        -5.2020   -2.6460   -0.6610 c         1 MOL      0.426250
    115 O17        -5.2920   -1.8560   -1.6620 o         1 MOL     -0.435971
    116 C37        -3.6740   -2.3950    1.4350 c3        1 MOL     -0.009356
    117 C38        -2.3680   -2.7790    2.1930 c3        1 MOL     -0.343567
    118 O18        -3.7440   -0.9660    1.4520 oh        1 MOL     -0.346967
    119 H53        -2.2510   -1.7200   -0.6760 hn        1 MOL      0.265972
    120 H54        -3.8290   -4.0840    0.0480 h1        1 MOL      0.080720
    121 H55        -4.5030   -2.7540    2.0530 h1        1 MOL      0.057242
    122 H56        -3.2870   -0.6990    2.2520 ho        1 MOL      0.346111
    123 H57        -1.5700   -2.0420    2.0150 hc        1 MOL      0.121648
    124 H58        -2.6120   -2.8840    3.2460 hc        1 MOL      0.121648
    125 H59        -2.0590   -3.7530    1.8260 hc        1 MOL      0.121648
    126 N11        -6.3570   -3.0900   -0.0940 n         1 MOL     -0.352097
    127 C39        -7.6620   -2.5100   -0.3510 c3        1 MOL     -0.102312
    128 C40        -7.6870   -1.0310   -0.0240 c         1 MOL      0.401601
    129 O19        -8.3170   -0.2590   -0.7560 o         1 MOL     -0.499846
    130 C41        -8.7940   -3.2440    0.4590 c3        1 MOL      0.209187
    131 C42        -9.0730   -4.6870   -0.1840 c3        1 MOL     -0.414263
    132 O20        -8.2570   -3.3550    1.7300 oh        1 MOL     -0.640535
    133 H60        -6.3380   -3.6400    0.7470 hn        1 MOL      0.272701
    134 H61        -7.8450   -2.6230   -1.4230 h1        1 MOL      0.155101
    135 H62        -9.6770   -2.6140    0.4460 h1        1 MOL      0.079239
    136 H63        -8.8070   -3.9950    2.1910 ho        1 MOL      0.440508
    137 H64        -9.9400   -5.1390    0.2870 hc        1 MOL      0.126896
    138 H65        -9.1500   -4.5510   -1.2650 hc        1 MOL      0.126896
    139 H66        -8.2590   -5.3330    0.1430 hc        1 MOL      0.126896
    140 N12        -6.9180   -0.5100    0.9680 n         1 MOL     -0.200113
    141 C43        -6.9170    0.9250    1.2450 c3        1 MOL     -0.062115
    142 C44        -6.1080    1.7060    0.2400 c         1 MOL      0.394530
    143 O21        -6.4990    2.7920   -0.1080 o         1 MOL     -0.531671
    144 C45        -6.5480    1.3080    2.6640 c3        1 MOL     -0.147371
    145 C46        -7.5520    0.6390    3.6910 c3        1 MOL      0.089855
    146 C47        -7.0860    0.9620    5.0800 c3        1 MOL      0.045623
    147 C48        -7.4690    2.2670    5.7600 c3        1 MOL      0.013600
    148 N13        -6.7190    2.4970    7.0230 n4        1 MOL     -0.235529
    149 H67        -6.1560   -1.0810    1.3060 hn        1 MOL      0.193599
    150 H68        -7.9080    1.3180    1.0200 h1        1 MOL      0.122750
    151 H69        -6.5920    2.3990    2.7060 hc        1 MOL      0.053288
    152 H70        -5.5330    0.9480    2.8280 hc        1 MOL      0.053288
    153 H71        -7.4760   -0.4410    3.5950 hc        1 MOL      0.005449
    154 H72        -8.5940    0.9110    3.5680 hc        1 MOL      0.005449
    155 H73        -5.9940    0.9630    5.1090 hc        1 MOL     -0.010127
    156 H74        -7.3600    0.1220    5.7100 hc        1 MOL     -0.010127
    157 H75        -8.5160    2.1920    6.0670 hx        1 MOL      0.076707
    158 H76        -7.3040    3.0740    5.0460 hx        1 MOL      0.076707
    159 H77        -7.0390    3.3310    7.4910 hn        1 MOL      0.280273
    160 H78        -6.9770    1.7430    7.6470 hn        1 MOL      0.280273
    161 H79        -5.7160    2.4210    6.8710 hn        1 MOL      0.280273
    162 N14        -4.9760    1.1920   -0.2530 n         1 MOL      0.095903
    163 C49        -4.0690    1.9540   -1.1460 c3        1 MOL     -0.435017
    164 C50        -4.6130    2.1180   -2.4720 c         1 MOL      0.624324
    165 O22        -4.3510    3.0800   -3.1800 o         1 MOL     -0.600896
    166 C51        -2.7920    1.1380   -1.1720 c3        1 MOL      0.079497
    167 C52        -1.9150    1.6440    0.0080 c3        1 MOL      0.006116
    168 C53        -0.5940    0.9260    0.2290 c         1 MOL      0.723360
    169 O23         0.3820    1.6460    0.6150 o         1 MOL     -0.748125
    170 O24        -0.3700   -0.3010    0.0440 o         1 MOL     -0.748125
    171 H80        -4.6410    0.3180    0.1220 hn        1 MOL      0.001970
    172 H81        -3.8500    2.9210   -0.6880 h1        1 MOL      0.157354
    173 H82        -2.1490    1.3640   -2.0320 hc        1 MOL      0.000999
    174 H83        -2.9600    0.0740   -1.0750 hc        1 MOL      0.000999
    175 H84        -2.4740    1.5510    0.9360 hc        1 MOL     -0.035778
    176 H85        -1.6210    2.6880   -0.0970 hc        1 MOL     -0.035778
    177 N15        -5.2680    1.0690   -2.9790 n         1 MOL     -0.195147
    178 C54        -6.0510    1.0430   -4.1940 c3        1 MOL     -0.322738
    179 H86        -7.0920    1.2610   -3.9580 h1        1 MOL      0.122243
    180 H87        -5.6710    1.7930   -4.8880 h1        1 MOL      0.122243
    181 H88        -5.9810    0.0560   -4.6510 h1        1 MOL      0.122243
    182 H89        -5.4270    0.2470   -2.4210 hn        1 MOL      0.222814
    183 Ca1         1.9230   -0.4350    1.2630 Ca        1 MOL      1.763655
    184 O25         0.9080   -2.9250    2.3270 oh        1 MOL     -0.844649
    185 H90         1.7420   -3.3700    2.1920 ho        1 MOL      0.388364
    186 H91         0.4900   -3.3960    3.0520 ho        1 MOL      0.388364
    187 O26         0.1430    0.1210    3.2070 oh        1 MOL     -0.844649
    188 H92         0.7130    0.7850    3.6040 ho        1 MOL      0.388364
    189 H93        -0.6800    0.1860    3.6950 ho        1 MOL      0.388364
@<TRIPOS>BOND
     1    1    2 1   
     2    1    4 1   
     3    1    5 1   
     4    1    6 1   
     5    2    3 2   
     6    2    7 1   
     7    7    8 1   
     8    7   15 1   
     9    8    9 1   
    10    8   11 1   
    11    8   16 1   
    12    9   10 2   
    13    9   19 1   
    14   11   12 1   
    15   11   17 1   
    16   11   18 1   
    17   12   13 1   
    18   12   14 1   
    19   19   20 1   
    20   19   28 1   
    21   20   21 1   
    22   20   23 1   
    23   20   29 1   
    24   21   22 2   
    25   21   41 1   
    26   23   24 1   
    27   23   30 1   
    28   23   31 1   
    29   24   25 1   
    30   24   32 1   
    31   24   33 1   
    32   25   26 1   
    33   25   34 1   
    34   25   35 1   
    35   26   27 1   
    36   26   36 1   
    37   26   37 1   
    38   27   38 1   
    39   27   39 1   
    40   27   40 1   
    41   41   42 1   
    42   41   49 1   
    43   42   43 1   
    44   42   45 1   
    45   42   50 1   
    46   43   44 2   
    47   43   53 1   
    48   45   46 1   
    49   45   51 1   
    50   45   52 1   
    51   46   47 1   
    52   46   48 1   
    53   53   54 1   
    54   53   57 1   
    55   54   55 1   
    56   54   58 1   
    57   54   59 1   
    58   55   56 2   
    59   55   60 1   
    60   60   61 1   
    61   60   68 1   
    62   61   62 1   
    63   61   64 1   
    64   61   69 1   
    65   62   63 2   
    66   62   72 1   
    67   64   65 1   
    68   64   70 1   
    69   64   71 1   
    70   65   66 1   
    71   65   67 1   
    72   72   73 1   
    73   72   76 1   
    74   73   74 1   
    75   73   77 1   
    76   73   78 1   
    77   74   75 2   
    78   74   79 1   
    79   79   80 1   
    80   79   86 1   
    81   80   81 1   
    82   80   83 1   
    83   80   87 1   
    84   81   82 2   
    85   81   93 1   
    86   83   84 1   
    87   83   85 1   
    88   83   88 1   
    89   84   90 1   
    90   84   91 1   
    91   84   92 1   
    92   85   89 1   
    93   93   94 1   
    94   93  101 1   
    95   94   95 1   
    96   94   97 1   
    97   94  102 1   
    98   95   96 2   
    99   95  112 1   
   100   97   98 1   
   101   97   99 1   
   102   97  103 1   
   103   98  100 1   
   104   98  104 1   
   105   98  105 1   
   106   99  106 1   
   107   99  107 1   
   108   99  108 1   
   109  100  109 1   
   110  100  110 1   
   111  100  111 1   
   112  112  113 1   
   113  112  119 1   
   114  113  114 1   
   115  113  116 1   
   116  113  120 1   
   117  114  115 2   
   118  114  126 1   
   119  116  117 1   
   120  116  118 1   
   121  116  121 1   
   122  117  123 1   
   123  117  124 1   
   124  117  125 1   
   125  118  122 1   
   126  126  127 1   
   127  126  133 1   
   128  127  128 1   
   129  127  130 1   
   130  127  134 1   
   131  128  129 2   
   132  128  140 1   
   133  130  131 1   
   134  130  132 1   
   135  130  135 1   
   136  131  137 1   
   137  131  138 1   
   138  131  139 1   
   139  132  136 1   
   140  140  141 1   
   141  140  149 1   
   142  141  142 1   
   143  141  144 1   
   144  141  150 1   
   145  142  143 2   
   146  142  162 1   
   147  144  145 1   
   148  144  151 1   
   149  144  152 1   
   150  145  146 1   
   151  145  153 1   
   152  145  154 1   
   153  146  147 1   
   154  146  155 1   
   155  146  156 1   
   156  147  148 1   
   157  147  157 1   
   158  147  158 1   
   159  148  159 1   
   160  148  160 1   
   161  148  161 1   
   162  162  163 1   
   163  162  171 1   
   164  163  164 1   
   165  163  166 1   
   166  163  172 1   
   167  164  165 2   
   168  164  177 1   
   169  166  167 1   
   170  166  173 1   
   171  166  174 1   
   172  167  168 1   
   173  167  175 1   
   174  167  176 1   
   175  168  169 1   
   176  168  170 1   
   177  177  178 1   
   178  177  182 1   
   179  178  179 1   
   180  178  180 1   
   181  178  181 1   
   182  184  185 1   
   183  184  186 1   
   184  187  188 1   
   185  187  189 1   
@<TRIPOS>SUBSTRUCTURE
     1 MOL         1 TEMP              0 ****  ****    0 ROOT
