@<TRIPOS>MOLECULE
MOL
  175   173     1     0     0
SMALL
resp


@<TRIPOS>ATOM
      1 C1          0.0910    3.8520    5.5330 c3        1 MOL     -0.331258
      2 C2         -0.5270    3.7060    4.1380 c         1 MOL      0.702169
      3 O1          0.0520    4.0480    3.1000 o         1 MOL     -0.549581
      4 H1         -0.3180    3.0860    6.1920 hc        1 MOL      0.080537
      5 H2          1.1720    3.7340    5.4670 hc        1 MOL      0.080537
      6 H3         -0.1440    4.8380    5.9340 hc        1 MOL      0.080537
      7 N1         -1.8000    3.3680    4.0490 n         1 MOL     -0.644577
      8 C3         -2.4930    3.3740    2.8110 c3        1 MOL      0.183230
      9 C4         -2.5380    4.7040    2.0810 c         1 MOL      0.675219
     10 O2         -2.9200    5.7180    2.6950 o         1 MOL     -0.603515
     11 C5         -3.8180    2.5690    2.9280 c3        1 MOL     -0.348119
     12 C6         -4.3620    2.4160    1.5170 c         1 MOL      0.684390
     13 O3         -5.5970    2.6300    1.4390 o         1 MOL     -0.626136
     14 O4         -3.6660    1.9440    0.5820 o         1 MOL     -0.626136
     15 H4         -2.3120    3.2170    4.9080 hn        1 MOL      0.324230
     16 H5         -1.8720    2.6640    2.2650 h1        1 MOL      0.033333
     17 H6         -4.5190    3.1430    3.5310 hc        1 MOL      0.071597
     18 H7         -3.6530    1.6080    3.4130 hc        1 MOL      0.071597
     19 N2         -2.2890    4.6430    0.7770 n         1 MOL     -0.553671
     20 C7         -2.6130    5.7050   -0.1280 c3        1 MOL      0.370744
     21 C8         -3.2730    5.2280   -1.5170 c         1 MOL      0.364181
     22 O5         -3.2730    6.1080   -2.3690 o         1 MOL     -0.518783
     23 C9         -1.3740    6.6090   -0.2260 c3        1 MOL     -0.291801
     24 H8         -2.1080    3.7110    0.4130 hn        1 MOL      0.313766
     25 H9         -3.3840    6.3050    0.3620 h1        1 MOL     -0.020572
     26 H10        -0.5500    6.0480   -0.6690 hc        1 MOL      0.064276
     27 H11        -1.6740    7.3120   -1.0040 hc        1 MOL      0.064276
     28 H12        -1.0150    7.0460    0.7130 hc        1 MOL      0.064276
     29 N3         -3.7350    3.9500   -1.7040 n         1 MOL     -0.172783
     30 C10        -4.5010    3.5150   -2.9190 c3        1 MOL      0.022450
     31 C11        -5.8390    2.7440   -2.5900 c         1 MOL      0.437075
     32 O6         -6.6910    2.5630   -3.4930 o         1 MOL     -0.570270
     33 C12        -3.5900    2.6790   -3.8620 c3        1 MOL     -0.021298
     34 C13        -2.9360    1.5030   -3.0710 c         1 MOL      0.585756
     35 O7         -1.6930    1.4960   -3.0220 o         1 MOL     -0.662517
     36 O8         -3.6980    0.6840   -2.4560 o         1 MOL     -0.662517
     37 H13        -3.6540    3.3450   -0.8950 hn        1 MOL      0.065898
     38 H14        -4.8420    4.4190   -3.4180 h1        1 MOL      0.052059
     39 H15        -2.8770    3.3590   -4.3180 hc        1 MOL      0.011883
     40 H16        -4.1870    2.2870   -4.6830 hc        1 MOL      0.011883
     41 N4         -6.0170    2.2370   -1.3570 n         1 MOL     -0.234045
     42 C14        -7.1820    1.4440   -0.9050 c3        1 MOL     -0.071457
     43 C15        -7.1730   -0.0810   -1.1230 c         1 MOL      0.551949
     44 O9         -8.1220   -0.7340   -0.8500 o         1 MOL     -0.647889
     45 H17        -5.2470    2.3120   -0.7190 hn        1 MOL      0.114543
     46 H18        -8.1030    1.8500   -1.3200 h1        1 MOL      0.079852
     47 H19        -7.2680    1.6070    0.1730 h1        1 MOL      0.079852
     48 N5         -6.1210   -0.6960   -1.6350 n         1 MOL     -0.270219
     49 C16        -6.1390   -2.0730   -2.0990 c3        1 MOL      0.167849
     50 C17        -6.1340   -3.2290   -0.9970 c         1 MOL      0.385026
     51 O10        -6.0240   -4.3990   -1.4160 o         1 MOL     -0.498845
     52 C18        -5.0830   -2.0970   -3.2170 c3        1 MOL     -0.315255
     53 C19        -3.6880   -2.2650   -2.6330 c         1 MOL      0.764699
     54 N6         -2.7030   -2.4730   -3.4680 n         1 MOL     -0.687322
     55 O11        -3.4400   -2.2040   -1.4360 o         1 MOL     -0.728323
     56 H20        -5.3570   -0.0820   -1.8640 hn        1 MOL      0.179128
     57 H21        -7.0530   -2.2830   -2.6510 h1        1 MOL      0.057140
     58 H22        -5.1850   -1.1390   -3.7090 hc        1 MOL      0.088113
     59 H23        -5.3280   -2.9030   -3.9030 hc        1 MOL      0.088113
     60 H24        -2.6840   -2.4750   -4.4740 hn        1 MOL      0.339962
     61 H25        -1.7620   -2.5140   -3.0800 hn        1 MOL      0.339962
     62 N7         -6.2570   -2.8340    0.2810 n         1 MOL     -0.296676
     63 C20        -6.1800   -3.8980    1.3420 c3        1 MOL     -0.208165
     64 C21        -4.8550   -4.5620    1.6700 c         1 MOL      0.499808
     65 O12        -4.8690   -5.4890    2.5110 o         1 MOL     -0.568986
     66 H26        -6.3870   -1.8750    0.5400 hn        1 MOL      0.317397
     67 H27        -6.8760   -4.7000    1.0910 h1        1 MOL      0.116147
     68 H28        -6.6030   -3.4970    2.2660 h1        1 MOL      0.116147
     69 N8         -3.7200   -4.1260    1.1070 n         1 MOL     -0.216186
     70 C22        -2.4230   -4.7330    1.2480 c3        1 MOL     -0.164516
     71 C23        -1.3170   -3.6570    1.2430 c         1 MOL      0.571171
     72 O13        -1.5660   -2.5580    0.6900 o         1 MOL     -0.485999
     73 C24        -2.1690   -5.6930    0.0740 c3        1 MOL      0.488795
     74 C25        -3.0630   -6.9380    0.1580 c3        1 MOL     -0.449637
     75 O14        -2.4740   -5.0580   -1.2300 oh        1 MOL     -0.608791
     76 H29        -3.7920   -3.4040    0.4100 hn        1 MOL      0.220406
     77 H30        -2.4680   -5.2610    2.2010 h1        1 MOL      0.079496
     78 H31        -1.1540   -6.0850    0.1690 h1        1 MOL     -0.030946
     79 H32        -2.3990   -4.1020   -1.2490 ho        1 MOL      0.358553
     80 H33        -2.6190   -7.7040   -0.4820 hc        1 MOL      0.114273
     81 H34        -3.0580   -7.2680    1.1990 hc        1 MOL      0.114273
     82 H35        -4.0960   -6.6930   -0.0850 hc        1 MOL      0.114273
     83 N9         -0.1870   -3.9130    1.9800 n         1 MOL     -0.602757
     84 C26         0.9600   -2.9960    2.1090 c3        1 MOL      0.013126
     85 C27         1.7480   -3.1550    0.8650 c         1 MOL      0.512754
     86 O15         2.3670   -4.2500    0.7000 o         1 MOL     -0.623824
     87 C28         1.8490   -3.0940    3.3890 c3        1 MOL      0.238459
     88 C29         0.9760   -3.5960    4.5770 c3        1 MOL     -0.083570
     89 C30         2.5780   -1.7560    3.6990 c3        1 MOL     -0.377288
     90 C31         1.8930   -3.7600    5.8010 c3        1 MOL     -0.094659
     91 H36        -0.0570   -4.8350    2.3720 hn        1 MOL      0.325556
     92 H37         0.5630   -1.9830    2.2040 h1        1 MOL      0.074148
     93 H38         2.6110   -3.8710    3.3140 hc        1 MOL     -0.005492
     94 H39         0.6020   -4.5820    4.2990 hc        1 MOL      0.035766
     95 H40         0.2210   -2.8810    4.8970 hc        1 MOL      0.035766
     96 H41         2.9540   -1.2570    2.8100 hc        1 MOL      0.091542
     97 H42         1.8730   -1.1840    4.3100 hc        1 MOL      0.091542
     98 H43         3.5270   -1.9060    4.2130 hc        1 MOL      0.091542
     99 H44         1.9610   -2.9110    6.4720 hc        1 MOL      0.018562
    100 H45         1.5360   -4.5890    6.4150 hc        1 MOL      0.018562
    101 H46         2.9520   -3.8620    5.5580 hc        1 MOL      0.018562
    102 N10         1.9510   -2.1750    0.0660 n         1 MOL     -0.250149
    103 C32         2.8030   -2.1750   -1.1310 c3        1 MOL      0.222803
    104 C33         4.0970   -1.4780   -0.7300 c         1 MOL      0.338045
    105 O16         4.2320   -0.6970    0.2080 o         1 MOL     -0.293356
    106 C34         2.0220   -1.4860   -2.3130 c3        1 MOL     -0.297500
    107 C35         0.5250   -1.7940   -2.2930 c         1 MOL      0.795981
    108 O17         0.1080   -2.7280   -2.9820 o         1 MOL     -0.698148
    109 O18        -0.2940   -1.0060   -1.7480 o         1 MOL     -0.698148
    110 H47         1.6040   -1.2790    0.3590 hn        1 MOL      0.097665
    111 H48         2.9780   -3.2250   -1.3790 h1        1 MOL      0.056625
    112 H49         2.3690   -1.9950   -3.2140 hc        1 MOL      0.064007
    113 H50         2.2050   -0.4110   -2.3710 hc        1 MOL      0.064007
    114 N11         5.1130   -1.7500   -1.5840 n         1 MOL     -0.579590
    115 C36         6.5160   -1.4680   -1.3120 c3        1 MOL      0.202713
    116 C37         6.8780    0.0850   -1.1080 c         1 MOL      0.425373
    117 O19         7.7740    0.3640   -0.3350 o         1 MOL     -0.476050
    118 C38         7.4580   -2.1280   -2.3860 c3        1 MOL     -0.068089
    119 C39         8.9940   -1.8710   -2.1570 ca        1 MOL      0.093295
    120 C40         9.6940   -1.1760   -3.1940 ca        1 MOL     -0.256978
    121 C41         9.5210   -2.1150   -0.8750 ca        1 MOL     -0.256978
    122 C42        11.0110   -0.7590   -2.9000 ca        1 MOL      0.002137
    123 C43        10.8450   -1.6790   -0.6530 ca        1 MOL      0.002137
    124 C44        11.6030   -1.0790   -1.6520 ca        1 MOL     -0.188544
    125 H51         4.9430   -2.3350   -2.3910 hn        1 MOL      0.306558
    126 H52         6.6450   -1.9160   -0.3270 h1        1 MOL      0.081371
    127 H53         7.2550   -1.5980   -3.3300 hc        1 MOL      0.034622
    128 H54         7.2830   -3.1910   -2.5610 hc        1 MOL      0.034622
    129 H55         9.2060   -0.9100   -4.1200 ha        1 MOL      0.147204
    130 H56         8.8970   -2.4860   -0.0720 ha        1 MOL      0.147204
    131 H57        11.5390   -0.2240   -3.6780 ha        1 MOL      0.081840
    132 H58        11.3780   -1.9240    0.2660 ha        1 MOL      0.081840
    133 H59        12.6560   -0.8430   -1.5440 ha        1 MOL      0.105845
    134 N12         6.2530    1.1540   -1.7630 n         1 MOL     -0.195068
    135 C45         6.4510    2.5810   -1.3880 c3        1 MOL      0.137914
    136 C46         5.7410    2.9220   -0.0600 c         1 MOL      0.327260
    137 O20         6.3230    3.7030    0.7160 o         1 MOL     -0.520448
    138 C47         5.8340    3.3920   -2.5490 c3        1 MOL     -0.243467
    139 C48         4.7650    2.4910   -3.0610 c3        1 MOL      0.173224
    140 C49         5.4110    1.0750   -2.9810 c3        1 MOL     -0.070332
    141 H60         7.5020    2.8660   -1.3320 h1        1 MOL      0.050225
    142 H61         5.3100    4.2930   -2.2500 hc        1 MOL      0.076184
    143 H62         6.5920    3.5380   -3.3260 hc        1 MOL      0.076184
    144 H63         3.8060    2.5250   -2.5360 hc        1 MOL     -0.014092
    145 H64         4.5270    2.6850   -4.1100 hc        1 MOL     -0.014092
    146 H65         4.5310    0.4400   -2.9120 h1        1 MOL      0.033037
    147 H66         5.9240    1.0280   -3.9400 h1        1 MOL      0.033037
    148 N13         4.5500    2.4120    0.2270 n         1 MOL     -0.198770
    149 C50         3.8820    2.5850    1.5500 c3        1 MOL     -0.218504
    150 C51         4.7120    1.8340    2.6620 c         1 MOL      0.565031
    151 O21         4.6730    2.3430    3.7980 o         1 MOL     -0.562053
    152 C52         2.4630    1.9260    1.4600 c3        1 MOL      0.093915
    153 C53         1.5330    2.3160    0.2390 c3        1 MOL     -0.099314
    154 C54         0.1540    1.6850    0.2680 c         1 MOL      0.592185
    155 O22        -0.8330    2.2170   -0.1660 o         1 MOL     -0.641719
    156 O23         0.0850    0.5480    0.8320 o         1 MOL     -0.641719
    157 H67         4.2940    1.5820   -0.2900 hn        1 MOL      0.230265
    158 H68         3.8720    3.6470    1.7920 h1        1 MOL      0.168531
    159 H69         1.9520    2.2490    2.3660 hc        1 MOL     -0.018825
    160 H70         2.4520    0.8520    1.6380 hc        1 MOL     -0.018825
    161 H71         2.0020    2.1630   -0.7280 hc        1 MOL      0.042029
    162 H72         1.4630    3.3990    0.3380 hc        1 MOL      0.042029
    163 N14         5.5010    0.7820    2.3450 n         1 MOL     -0.194099
    164 C55         6.3400    0.1520    3.3550 c3        1 MOL     -0.179473
    165 H73         5.7270   -0.4910    3.9870 h1        1 MOL      0.078478
    166 H74         7.1100   -0.4460    2.8680 h1        1 MOL      0.078478
    167 H75         6.8100    0.9210    3.9690 h1        1 MOL      0.078478
    168 H76         5.3210    0.2650    1.5010 hn        1 MOL      0.132880
    169 Ca1        -2.0670   -0.0000   -0.3630 Ca        1 MOL      1.691055
    170 O24        -1.6710   -0.0550    2.7260 oh        1 MOL     -0.807243
    171 H77        -1.6320    0.1670    3.6600 ho        1 MOL      0.392042
    172 H78        -0.8530    0.2770    2.3670 ho        1 MOL      0.392042
    173 O25        -4.0100   -0.9410    1.4490 oh        1 MOL     -0.807243
    174 H79        -3.3320   -0.8730    2.1270 ho        1 MOL      0.392042
    175 H80        -4.8050   -0.6200    1.8800 ho        1 MOL      0.392042
@<TRIPOS>BOND
     1    1    2 1   
     2    1    4 1   
     3    1    5 1   
     4    1    6 1   
     5    2    3 2   
     6    2    7 1   
     7    7    8 1   
     8    7   15 1   
     9    8    9 1   
    10    8   11 1   
    11    8   16 1   
    12    9   10 2   
    13    9   19 1   
    14   11   12 1   
    15   11   17 1   
    16   11   18 1   
    17   12   13 1   
    18   12   14 1   
    19   19   20 1   
    20   19   24 1   
    21   20   21 1   
    22   20   23 1   
    23   20   25 1   
    24   21   22 2   
    25   21   29 1   
    26   23   26 1   
    27   23   27 1   
    28   23   28 1   
    29   29   30 1   
    30   29   37 1   
    31   30   31 1   
    32   30   33 1   
    33   30   38 1   
    34   31   32 2   
    35   31   41 1   
    36   33   34 1   
    37   33   39 1   
    38   33   40 1   
    39   34   35 1   
    40   34   36 1   
    41   41   42 1   
    42   41   45 1   
    43   42   43 1   
    44   42   46 1   
    45   42   47 1   
    46   43   44 2   
    47   43   48 1   
    48   48   49 1   
    49   48   56 1   
    50   49   50 1   
    51   49   52 1   
    52   49   57 1   
    53   50   51 2   
    54   50   62 1   
    55   52   53 1   
    56   52   58 1   
    57   52   59 1   
    58   53   54 1   
    59   53   55 2   
    60   54   60 1   
    61   54   61 1   
    62   62   63 1   
    63   62   66 1   
    64   63   64 1   
    65   63   67 1   
    66   63   68 1   
    67   64   65 2   
    68   64   69 1   
    69   69   70 1   
    70   69   76 1   
    71   70   71 1   
    72   70   73 1   
    73   70   77 1   
    74   71   72 2   
    75   71   83 1   
    76   73   74 1   
    77   73   75 1   
    78   73   78 1   
    79   74   80 1   
    80   74   81 1   
    81   74   82 1   
    82   75   79 1   
    83   83   84 1   
    84   83   91 1   
    85   84   85 1   
    86   84   87 1   
    87   84   92 1   
    88   85   86 2   
    89   85  102 1   
    90   87   88 1   
    91   87   89 1   
    92   87   93 1   
    93   88   90 1   
    94   88   94 1   
    95   88   95 1   
    96   89   96 1   
    97   89   97 1   
    98   89   98 1   
    99   90   99 1   
   100   90  100 1   
   101   90  101 1   
   102  102  103 1   
   103  102  110 1   
   104  103  104 1   
   105  103  106 1   
   106  103  111 1   
   107  104  105 2   
   108  104  114 1   
   109  106  107 1   
   110  106  112 1   
   111  106  113 1   
   112  107  108 1   
   113  107  109 1   
   114  114  115 1   
   115  114  125 1   
   116  115  116 1   
   117  115  118 1   
   118  115  126 1   
   119  116  117 2   
   120  116  134 1   
   121  118  119 1   
   122  118  127 1   
   123  118  128 1   
   124  119  120 ar  
   125  119  121 ar  
   126  120  122 ar  
   127  120  129 1   
   128  121  123 ar  
   129  121  130 1   
   130  122  124 ar  
   131  122  131 1   
   132  123  124 ar  
   133  123  132 1   
   134  124  133 1   
   135  134  135 1   
   136  134  140 1   
   137  135  136 1   
   138  135  138 1   
   139  135  141 1   
   140  136  137 2   
   141  136  148 1   
   142  138  139 1   
   143  138  142 1   
   144  138  143 1   
   145  139  140 1   
   146  139  144 1   
   147  139  145 1   
   148  140  146 1   
   149  140  147 1   
   150  148  149 1   
   151  148  157 1   
   152  149  150 1   
   153  149  152 1   
   154  149  158 1   
   155  150  151 2   
   156  150  163 1   
   157  152  153 1   
   158  152  159 1   
   159  152  160 1   
   160  153  154 1   
   161  153  161 1   
   162  153  162 1   
   163  154  155 1   
   164  154  156 1   
   165  163  164 1   
   166  163  168 1   
   167  164  165 1   
   168  164  166 1   
   169  164  167 1   
   170  170  171 1   
   171  170  172 1   
   172  173  174 1   
   173  173  175 1   
@<TRIPOS>SUBSTRUCTURE
     1 MOL         1 TEMP              0 ****  ****    0 ROOT
