@<TRIPOS>MOLECULE
MOL
  189   185     1     0     0
SMALL
resp


@<TRIPOS>ATOM
      1 C1          0.2590    1.1070    5.8770 c3        1 MOL     -0.233664
      2 C2         -0.2860    1.4290    4.4580 c         1 MOL      0.640610
      3 O1          0.4050    2.1670    3.6880 o         1 MOL     -0.644003
      4 H1          0.7440    0.1310    5.8660 hc        1 MOL      0.070519
      5 H2          0.9820    1.8670    6.1700 hc        1 MOL      0.070519
      6 H3         -0.5650    1.0940    6.5890 hc        1 MOL      0.070519
      7 N1         -1.5240    1.0440    4.1150 n         1 MOL     -0.556082
      8 C3         -2.2350    1.0970    2.8380 c3        1 MOL      0.110267
      9 C4         -2.8010    2.5310    2.5220 c         1 MOL      0.467512
     10 O2         -4.0420    2.6820    2.6000 o         1 MOL     -0.497937
     11 C5         -3.2410   -0.0380    2.7620 c3        1 MOL     -0.017883
     12 C6         -3.9560   -0.1440    1.3960 c         1 MOL      0.790004
     13 O3         -4.9890   -0.8770    1.3530 o         1 MOL     -0.761365
     14 O4         -3.5740    0.5110    0.4140 o         1 MOL     -0.761365
     15 H4         -1.8870    0.4850    4.8730 hn        1 MOL      0.319590
     16 H5         -1.5600    1.0140    1.9800 h1        1 MOL      0.050872
     17 H6         -3.8940    0.0170    3.6350 hc        1 MOL     -0.006698
     18 H7         -2.6530   -0.9320    2.9340 hc        1 MOL     -0.006698
     19 N2         -1.9110    3.4850    2.2610 n         1 MOL     -0.284977
     20 C7         -2.2550    4.8900    2.1590 c3        1 MOL     -0.120560
     21 C8         -3.1560    5.2820    0.9430 c         1 MOL      0.447325
     22 O5         -3.8240    6.2630    0.9400 o         1 MOL     -0.550389
     23 C9         -0.9960    5.7920    2.0340 c3        1 MOL     -0.144494
     24 C10        -0.0680    5.6590    0.7660 c3        1 MOL      0.144958
     25 C11         0.8290    6.9110    0.6150 c3        1 MOL     -0.305590
     26 C12         1.5960    7.0040   -0.7460 c3        1 MOL      0.035513
     27 N3          2.3230    5.7660   -1.0860 n4        1 MOL     -0.449917
     28 H8         -0.9500    3.2530    2.1010 hn        1 MOL      0.310665
     29 H9         -2.7630    5.1260    3.0970 h1        1 MOL      0.135488
     30 H10        -0.3930    5.6530    2.9420 hc        1 MOL      0.072750
     31 H11        -1.3260    6.8040    2.2420 hc        1 MOL      0.072750
     32 H12        -0.5770    5.6070   -0.1960 hc        1 MOL      0.040794
     33 H13         0.5250    4.7490    0.8760 hc        1 MOL      0.040794
     34 H14         1.3880    7.0480    1.5460 hc        1 MOL      0.103860
     35 H15         0.2160    7.8160    0.6020 hc        1 MOL      0.103860
     36 H16         2.3680    7.7780   -0.7150 hx        1 MOL      0.101981
     37 H17         0.9180    7.4480   -1.4840 hx        1 MOL      0.101981
     38 H18         2.7090    5.4220   -0.2210 hn        1 MOL      0.355505
     39 H19         1.7560    5.0910   -1.5880 hn        1 MOL      0.355505
     40 H20         3.1150    5.9920   -1.6710 hn        1 MOL      0.355505
     41 N4         -3.3340    4.3080    0.0350 n         1 MOL     -0.086914
     42 C13        -4.3280    4.5340   -1.0690 c3        1 MOL     -0.033395
     43 C14        -5.4870    3.5220   -1.1590 c         1 MOL      0.325507
     44 O6         -6.2280    3.5460   -2.1570 o         1 MOL     -0.486182
     45 C15        -3.5470    4.5820   -2.4040 c3        1 MOL     -0.249523
     46 C16        -2.6290    3.4340   -2.8240 c         1 MOL      0.938178
     47 O7         -2.6510    2.3540   -2.2140 o         1 MOL     -0.800891
     48 O8         -1.7600    3.5850   -3.7270 o         1 MOL     -0.800891
     49 H21        -2.8380    3.4360    0.1670 hn        1 MOL      0.049307
     50 H22        -4.8870    5.4550   -0.9050 h1        1 MOL      0.129790
     51 H23        -2.8870    5.4460   -2.3940 hc        1 MOL      0.043772
     52 H24        -4.2400    4.7330   -3.2320 hc        1 MOL      0.043772
     53 N5         -5.7230    2.7280   -0.1510 n         1 MOL      0.119279
     54 C17        -7.0070    2.1540    0.1570 c3        1 MOL     -0.356181
     55 C18        -7.4990    1.0400   -0.7490 c         1 MOL      0.727250
     56 O9         -8.3400    1.2490   -1.6400 o         1 MOL     -0.558476
     57 H25        -5.0210    2.7990    0.5810 hn        1 MOL      0.088026
     58 H26        -7.6330    3.0390    0.2230 h1        1 MOL      0.105581
     59 H27        -6.9930    1.8340    1.2080 h1        1 MOL      0.105581
     60 N6         -6.9310   -0.1400   -0.6030 n         1 MOL     -0.656452
     61 C19        -7.3730   -1.2320   -1.5380 c3        1 MOL      0.056105
     62 C20        -7.1800   -2.5970   -0.8650 c         1 MOL      0.473521
     63 O10        -7.5780   -3.5110   -1.5200 o         1 MOL     -0.510076
     64 C21        -6.5140   -1.1800   -2.8540 c3        1 MOL     -0.286197
     65 C22        -4.9650   -1.0610   -2.6020 c         1 MOL      0.847134
     66 O11        -4.3970   -1.7980   -1.8060 o         1 MOL     -0.724940
     67 O12        -4.2910   -0.2530   -3.2660 o         1 MOL     -0.724940
     68 H28        -6.0380   -0.1410   -0.1340 hn        1 MOL      0.326725
     69 H29        -8.4360   -1.1140   -1.7340 h1        1 MOL      0.117057
     70 H30        -6.8840   -0.3300   -3.4150 hc        1 MOL      0.096468
     71 H31        -6.5500   -2.0620   -3.4900 hc        1 MOL      0.096468
     72 N7         -6.8650   -2.6480    0.4360 n         1 MOL     -0.274150
     73 C23        -6.7770   -3.8910    1.0570 c3        1 MOL     -0.230728
     74 C24        -5.4380   -4.6930    0.8710 c         1 MOL      0.589478
     75 O13        -5.2720   -5.8970    1.1000 o         1 MOL     -0.596069
     76 H32        -6.6550   -1.8090    0.9540 hn        1 MOL      0.317577
     77 H33        -7.5750   -4.5150    0.6570 h1        1 MOL      0.098306
     78 H34        -6.7950   -3.7170    2.1380 h1        1 MOL      0.098306
     79 N8         -4.4310   -3.9900    0.3370 n         1 MOL     -0.233683
     80 C25        -3.0940   -4.5030    0.1110 c3        1 MOL     -0.313203
     81 C26        -1.9730   -3.4720    0.3870 c         1 MOL      0.715624
     82 O14        -2.0640   -2.2900    0.0390 o         1 MOL     -0.667156
     83 C27        -2.9340   -4.9930   -1.3730 c3        1 MOL      0.620012
     84 C28        -3.1330   -6.4370   -1.4810 c3        1 MOL     -0.591918
     85 O15        -3.8470   -4.3550   -2.3250 oh        1 MOL     -0.670431
     86 H35        -4.6150   -3.0190    0.1270 hn        1 MOL      0.272111
     87 H36        -2.9000   -5.3880    0.7220 h1        1 MOL      0.119622
     88 H37        -1.9340   -4.8020   -1.7700 h1        1 MOL     -0.069819
     89 H38        -3.9870   -3.4440   -2.0590 ho        1 MOL      0.426884
     90 H39        -3.2150   -6.6580   -2.5480 hc        1 MOL      0.146404
     91 H40        -2.2770   -6.9280   -1.0280 hc        1 MOL      0.146404
     92 H41        -4.0630   -6.7310   -1.0000 hc        1 MOL      0.146404
     93 N9         -0.8340   -4.0280    0.8800 n         1 MOL     -0.716827
     94 C29         0.4040   -3.2490    1.2280 c3        1 MOL      0.168950
     95 C30         1.5380   -3.6270    0.2900 c         1 MOL      0.483249
     96 O16         1.9820   -4.8050    0.2410 o         1 MOL     -0.556615
     97 C31         0.7790   -3.6230    2.6790 c3        1 MOL      0.048768
     98 C32        -0.3110   -3.2520    3.7050 c3        1 MOL      0.310690
     99 C33         2.1470   -2.8610    3.1600 c3        1 MOL     -0.391387
    100 C34        -0.0040   -3.7560    5.0540 c3        1 MOL     -0.332887
    101 H42        -0.9000   -5.0220    0.9920 hn        1 MOL      0.341322
    102 H43         0.2600   -2.1720    1.1430 h1        1 MOL      0.107255
    103 H44         0.9920   -4.6910    2.6430 hc        1 MOL      0.017315
    104 H45        -1.2930   -3.6430    3.4310 hc        1 MOL     -0.054924
    105 H46        -0.3740   -2.1680    3.7700 hc        1 MOL     -0.054924
    106 H47         2.6160   -3.3070    4.0350 hc        1 MOL      0.077923
    107 H48         2.8860   -2.9570    2.3690 hc        1 MOL      0.077923
    108 H49         1.9650   -1.7990    3.3280 hc        1 MOL      0.077923
    109 H50         0.1880   -4.8340    5.0580 hc        1 MOL      0.070679
    110 H51         0.8830   -3.2220    5.3950 hc        1 MOL      0.070679
    111 H52        -0.8850   -3.4300    5.6110 hc        1 MOL      0.070679
    112 N10         2.1810   -2.6540   -0.3360 n         1 MOL     -0.229528
    113 C35         3.3000   -2.7150   -1.2480 c3        1 MOL     -0.025687
    114 C36         4.6320   -2.6650   -0.4890 c         1 MOL      0.528762
    115 O17         4.7610   -2.2770    0.6640 o         1 MOL     -0.427586
    116 C37         3.3200   -1.6320   -2.3490 c3        1 MOL      0.038112
    117 C38         2.0030   -1.6300   -3.1070 c3        1 MOL     -0.591429
    118 O18         3.5800   -0.4330   -1.7960 oh        1 MOL     -0.239970
    119 H53         1.7610   -1.7410   -0.2320 hn        1 MOL      0.282419
    120 H54         3.3150   -3.6900   -1.7210 h1        1 MOL      0.088122
    121 H55         4.0640   -1.8850   -3.1050 h1        1 MOL      0.036225
    122 H56         3.7620    0.0060   -2.6270 ho        1 MOL      0.321775
    123 H57         1.6260   -2.6120   -3.3930 hc        1 MOL      0.164242
    124 H58         1.2030   -1.1010   -2.5980 hc        1 MOL      0.164242
    125 H59         2.1410   -1.1560   -4.0780 hc        1 MOL      0.164242
    126 N11         5.7440   -2.9940   -1.1610 n         1 MOL     -0.380974
    127 C39         7.1640   -2.8960   -0.6440 c3        1 MOL      0.031000
    128 C40         7.3830   -1.4370   -0.2470 c         1 MOL      0.193682
    129 O19         8.0300   -1.1960    0.7700 o         1 MOL     -0.471097
    130 C41         8.2120   -3.2500   -1.6880 c3        1 MOL      0.340038
    131 C42         9.5730   -3.3720   -1.0680 c3        1 MOL     -0.427959
    132 O20         7.9510   -4.6310   -2.1050 oh        1 MOL     -0.571326
    133 H60         5.6400   -3.4480   -2.0550 hn        1 MOL      0.213250
    134 H61         7.2270   -3.4940    0.2600 h1        1 MOL      0.172333
    135 H62         8.2010   -2.5750   -2.5340 h1        1 MOL     -0.010337
    136 H63         8.5300   -4.6660   -2.8710 ho        1 MOL      0.368496
    137 H64         9.8000   -2.5140   -0.4380 hc        1 MOL      0.118820
    138 H65         9.6420   -4.1970   -0.3520 hc        1 MOL      0.118820
    139 H66        10.4020   -3.2830   -1.7780 hc        1 MOL      0.118820
    140 N12         6.7950   -0.4320   -0.8950 n         1 MOL     -0.143848
    141 C43         6.8650    1.0490   -0.5370 c3        1 MOL      0.067475
    142 C44         5.9340    1.4820    0.6150 c         1 MOL      0.255191
    143 O21         6.4380    2.1690    1.5110 o         1 MOL     -0.495204
    144 C45         6.5190    1.9490   -1.7190 c3        1 MOL     -0.082695
    145 C46         7.3030    1.7190   -2.9730 c3        1 MOL     -0.022457
    146 C47         8.7860    2.0010   -3.0040 c3        1 MOL      0.043055
    147 C48         9.1970    3.3520   -2.4590 c3        1 MOL     -0.062621
    148 N13        10.7030    3.4010   -2.5460 n4        1 MOL     -0.160183
    149 H67         6.1810   -0.7060   -1.6410 hn        1 MOL      0.126300
    150 H68         7.8460    1.2780   -0.1320 h1        1 MOL      0.092142
    151 H69         6.4590    3.0070   -1.4430 hc        1 MOL      0.003336
    152 H70         5.5240    1.5830   -1.9410 hc        1 MOL      0.003336
    153 H71         6.8560    2.4060   -3.6790 hc        1 MOL      0.025484
    154 H72         7.1780    0.7010   -3.3430 hc        1 MOL      0.025484
    155 H73         9.2370    1.7880   -3.9760 hc        1 MOL      0.005761
    156 H74         9.2040    1.2950   -2.2920 hc        1 MOL      0.005761
    157 H75         8.8360    3.3720   -1.4300 hx        1 MOL      0.115550
    158 H76         8.7790    4.0710   -3.1590 hx        1 MOL      0.115550
    159 H77        11.1780    4.2090   -2.1720 hn        1 MOL      0.240662
    160 H78        11.0730    2.5960   -2.0550 hn        1 MOL      0.240662
    161 H79        11.0420    3.2590   -3.4900 hn        1 MOL      0.240662
    162 N14         4.7290    0.8970    0.6910 n         1 MOL     -0.023343
    163 C49         3.8290    1.0720    1.8450 c3        1 MOL     -0.167240
    164 C50         4.3840    0.5490    3.2150 c         1 MOL      0.486065
    165 O22         4.1740    1.0620    4.3130 o         1 MOL     -0.515373
    166 C51         2.4650    0.4390    1.4620 c3        1 MOL      0.220584
    167 C52         1.6480    1.4570    0.6550 c3        1 MOL     -0.529148
    168 C53         0.3510    0.8520    0.0280 c         1 MOL      0.728906
    169 O23         0.4120   -0.3130   -0.4170 o         1 MOL     -0.737651
    170 O24        -0.6460    1.5540   -0.2210 o         1 MOL     -0.737651
    171 H80         4.4210    0.4310   -0.1430 hn        1 MOL      0.087942
    172 H81         3.7040    2.1460    2.0240 h1        1 MOL      0.089782
    173 H82         1.8000    0.2910    2.3080 hc        1 MOL      0.025652
    174 H83         2.6850   -0.4960    0.9510 hc        1 MOL      0.025652
    175 H84         2.1490    1.9170   -0.1970 hc        1 MOL      0.077468
    176 H85         1.4570    2.3270    1.2700 hc        1 MOL      0.077468
    177 N15         5.1940   -0.5430    3.0020 n         1 MOL     -0.086127
    178 C54         5.9190   -1.1160    4.1100 c3        1 MOL     -0.494860
    179 H86         6.1880   -2.1460    3.8740 h1        1 MOL      0.157613
    180 H87         6.8250   -0.5370    4.2910 h1        1 MOL      0.157613
    181 H88         5.2940   -1.1000    5.0020 h1        1 MOL      0.157613
    182 H89         5.1820   -0.9170    2.0620 hn        1 MOL      0.235440
    183 Ca1        -2.1130   -0.0820   -1.6600 Ca        1 MOL      1.825677
    184 O25        -0.7890    1.0260   -3.7290 oh        1 MOL     -0.858375
    185 H90        -1.2670    1.8480   -3.6580 ho        1 MOL      0.404875
    186 H91         0.0500    1.2740   -4.1160 ho        1 MOL      0.404875
    187 O26        -1.4370   -1.8830   -3.6860 oh        1 MOL     -0.858375
    188 H92        -1.8050   -2.7030   -4.0230 ho        1 MOL      0.404875
    189 H93        -0.9710   -1.5090   -4.4340 ho        1 MOL      0.404875
@<TRIPOS>BOND
     1    1    2 1   
     2    1    4 1   
     3    1    5 1   
     4    1    6 1   
     5    2    3 2   
     6    2    7 1   
     7    7    8 1   
     8    7   15 1   
     9    8    9 1   
    10    8   11 1   
    11    8   16 1   
    12    9   10 2   
    13    9   19 1   
    14   11   12 1   
    15   11   17 1   
    16   11   18 1   
    17   12   13 1   
    18   12   14 1   
    19   19   20 1   
    20   19   28 1   
    21   20   21 1   
    22   20   23 1   
    23   20   29 1   
    24   21   22 2   
    25   21   41 1   
    26   23   24 1   
    27   23   30 1   
    28   23   31 1   
    29   24   25 1   
    30   24   32 1   
    31   24   33 1   
    32   25   26 1   
    33   25   34 1   
    34   25   35 1   
    35   26   27 1   
    36   26   36 1   
    37   26   37 1   
    38   27   38 1   
    39   27   39 1   
    40   27   40 1   
    41   41   42 1   
    42   41   49 1   
    43   42   43 1   
    44   42   45 1   
    45   42   50 1   
    46   43   44 2   
    47   43   53 1   
    48   45   46 1   
    49   45   51 1   
    50   45   52 1   
    51   46   47 1   
    52   46   48 1   
    53   53   54 1   
    54   53   57 1   
    55   54   55 1   
    56   54   58 1   
    57   54   59 1   
    58   55   56 2   
    59   55   60 1   
    60   60   61 1   
    61   60   68 1   
    62   61   62 1   
    63   61   64 1   
    64   61   69 1   
    65   62   63 2   
    66   62   72 1   
    67   64   65 1   
    68   64   70 1   
    69   64   71 1   
    70   65   66 1   
    71   65   67 1   
    72   72   73 1   
    73   72   76 1   
    74   73   74 1   
    75   73   77 1   
    76   73   78 1   
    77   74   75 2   
    78   74   79 1   
    79   79   80 1   
    80   79   86 1   
    81   80   81 1   
    82   80   83 1   
    83   80   87 1   
    84   81   82 2   
    85   81   93 1   
    86   83   84 1   
    87   83   85 1   
    88   83   88 1   
    89   84   90 1   
    90   84   91 1   
    91   84   92 1   
    92   85   89 1   
    93   93   94 1   
    94   93  101 1   
    95   94   95 1   
    96   94   97 1   
    97   94  102 1   
    98   95   96 2   
    99   95  112 1   
   100   97   98 1   
   101   97   99 1   
   102   97  103 1   
   103   98  100 1   
   104   98  104 1   
   105   98  105 1   
   106   99  106 1   
   107   99  107 1   
   108   99  108 1   
   109  100  109 1   
   110  100  110 1   
   111  100  111 1   
   112  112  113 1   
   113  112  119 1   
   114  113  114 1   
   115  113  116 1   
   116  113  120 1   
   117  114  115 2   
   118  114  126 1   
   119  116  117 1   
   120  116  118 1   
   121  116  121 1   
   122  117  123 1   
   123  117  124 1   
   124  117  125 1   
   125  118  122 1   
   126  126  127 1   
   127  126  133 1   
   128  127  128 1   
   129  127  130 1   
   130  127  134 1   
   131  128  129 2   
   132  128  140 1   
   133  130  131 1   
   134  130  132 1   
   135  130  135 1   
   136  131  137 1   
   137  131  138 1   
   138  131  139 1   
   139  132  136 1   
   140  140  141 1   
   141  140  149 1   
   142  141  142 1   
   143  141  144 1   
   144  141  150 1   
   145  142  143 2   
   146  142  162 1   
   147  144  145 1   
   148  144  151 1   
   149  144  152 1   
   150  145  146 1   
   151  145  153 1   
   152  145  154 1   
   153  146  147 1   
   154  146  155 1   
   155  146  156 1   
   156  147  148 1   
   157  147  157 1   
   158  147  158 1   
   159  148  159 1   
   160  148  160 1   
   161  148  161 1   
   162  162  163 1   
   163  162  171 1   
   164  163  164 1   
   165  163  166 1   
   166  163  172 1   
   167  164  165 2   
   168  164  177 1   
   169  166  167 1   
   170  166  173 1   
   171  166  174 1   
   172  167  168 1   
   173  167  175 1   
   174  167  176 1   
   175  168  169 1   
   176  168  170 1   
   177  177  178 1   
   178  177  182 1   
   179  178  179 1   
   180  178  180 1   
   181  178  181 1   
   182  184  185 1   
   183  184  186 1   
   184  187  188 1   
   185  187  189 1   
@<TRIPOS>SUBSTRUCTURE
     1 MOL         1 TEMP              0 ****  ****    0 ROOT
