@<TRIPOS>MOLECULE
MOL
  189   185     1     0     0
SMALL
resp


@<TRIPOS>ATOM
      1 C1          0.7330    2.4820    5.1220 c3        1 MOL     -0.305445
      2 C2          0.0430    2.3650    3.7460 c         1 MOL      0.553221
      3 O1          0.5550    2.8580    2.7280 o         1 MOL     -0.585107
      4 H1          0.7500    1.5040    5.6040 hc        1 MOL      0.083294
      5 H2          1.7540    2.8380    4.9870 hc        1 MOL      0.083294
      6 H3          0.1820    3.1850    5.7470 hc        1 MOL      0.083294
      7 N1         -1.2420    1.8760    3.7300 n         1 MOL     -0.451438
      8 C3         -1.9790    1.6300    2.4760 c3        1 MOL      0.081797
      9 C4         -2.7240    2.8220    1.9600 c         1 MOL      0.393228
     10 O2         -3.7840    3.2120    2.4470 o         1 MOL     -0.491898
     11 C5         -2.8820    0.4060    2.7930 c3        1 MOL     -0.154472
     12 C6         -3.6960   -0.1440    1.6180 c         1 MOL      0.766767
     13 O3         -4.7390   -0.7400    1.9240 o         1 MOL     -0.651574
     14 O4         -3.2040    0.1500    0.5030 o         1 MOL     -0.651574
     15 H4         -1.6300    1.5980    4.6160 hn        1 MOL      0.303024
     16 H5         -1.2950    1.2640    1.7060 h1        1 MOL      0.035539
     17 H6         -3.6060    0.8330    3.4940 hc        1 MOL      0.023422
     18 H7         -2.3850   -0.3890    3.3560 hc        1 MOL      0.023422
     19 N2         -2.0480    3.6050    1.1360 n         1 MOL     -0.122986
     20 C7         -2.4250    5.0030    0.8410 c3        1 MOL     -0.240176
     21 C8         -3.4750    5.1140   -0.2600 c         1 MOL      0.529876
     22 O5         -4.0870    6.1730   -0.4600 o         1 MOL     -0.575279
     23 C9         -1.1540    5.7760    0.5330 c3        1 MOL     -0.031736
     24 C10        -0.2400    6.1200    1.7430 c3        1 MOL      0.193460
     25 C11         0.5510    7.3220    1.4670 c3        1 MOL     -0.137082
     26 C12         0.9990    7.9170    2.8260 c3        1 MOL     -0.003769
     27 N3          1.7770    6.9670    3.6200 n4        1 MOL     -0.364831
     28 H8         -1.0790    3.3720    0.9640 hn        1 MOL      0.219385
     29 H9         -2.7630    5.5480    1.7230 h1        1 MOL      0.112427
     30 H10        -1.3590    6.6930   -0.0150 hc        1 MOL      0.036506
     31 H11        -0.6460    5.2560   -0.2710 hc        1 MOL      0.036506
     32 H12         0.3800    5.2480    1.9690 hc        1 MOL     -0.012014
     33 H13        -0.8940    6.2510    2.6050 hc        1 MOL     -0.012014
     34 H14        -0.0240    8.1140    1.0060 hc        1 MOL      0.063630
     35 H15         1.3410    7.0190    0.7730 hc        1 MOL      0.063630
     36 H16         0.0950    8.0690    3.4170 hx        1 MOL      0.092508
     37 H17         1.4400    8.9080    2.6750 hx        1 MOL      0.092508
     38 H18         2.5010    6.5560    3.0360 hn        1 MOL      0.333326
     39 H19         2.2700    7.3590    4.4070 hn        1 MOL      0.333326
     40 H20         1.2410    6.2330    4.0640 hn        1 MOL      0.333326
     41 N4         -3.7260    4.0380   -1.0440 n         1 MOL     -0.125976
     42 C13        -4.6970    4.0170   -2.1420 c3        1 MOL     -0.169099
     43 C14        -5.7930    3.0940   -1.8450 c         1 MOL      0.418124
     44 O6         -6.7700    2.9060   -2.6220 o         1 MOL     -0.493767
     45 C15        -3.8420    3.6420   -3.4400 c3        1 MOL     -0.181108
     46 C16        -2.8550    2.5070   -3.3840 c         1 MOL      0.906402
     47 O7         -2.8500    1.6570   -2.4550 o         1 MOL     -0.777844
     48 O8         -1.9350    2.5680   -4.2220 o         1 MOL     -0.777844
     49 H21        -3.1560    3.2290   -0.8860 hn        1 MOL      0.119012
     50 H22        -5.1130    5.0200   -2.1920 h1        1 MOL      0.158100
     51 H23        -3.3260    4.5710   -3.6990 hc        1 MOL      0.052493
     52 H24        -4.3950    3.4030   -4.3420 hc        1 MOL      0.052493
     53 N5         -5.8390    2.5240   -0.6270 n         1 MOL     -0.153275
     54 C17        -6.8780    1.6910   -0.0530 c3        1 MOL     -0.032524
     55 C18        -7.4140    0.4940   -0.8070 c         1 MOL      0.296898
     56 O9         -8.5340    0.5550   -1.3240 o         1 MOL     -0.521886
     57 H25        -5.0540    2.7380   -0.0120 hn        1 MOL      0.116392
     58 H26        -7.7480    2.3190    0.1540 h1        1 MOL      0.064953
     59 H27        -6.5350    1.4890    0.9630 h1        1 MOL      0.064953
     60 N6         -6.6280   -0.4660   -1.1000 n         1 MOL      0.028251
     61 C19        -7.0270   -1.8290   -1.5400 c3        1 MOL     -0.068168
     62 C20        -7.0410   -2.9130   -0.3630 c         1 MOL      0.380971
     63 O10        -7.4210   -4.0310   -0.6320 o         1 MOL     -0.490534
     64 C21        -6.0690   -2.3160   -2.6860 c3        1 MOL     -0.140999
     65 C22        -4.5770   -1.9520   -2.4970 c         1 MOL      0.682268
     66 O11        -4.0300   -2.2290   -1.3940 o         1 MOL     -0.690212
     67 O12        -3.8840   -1.2950   -3.3230 o         1 MOL     -0.690212
     68 H28        -5.6520   -0.3750   -0.8570 hn        1 MOL      0.049212
     69 H29        -8.0570   -1.7370   -1.8960 h1        1 MOL      0.112502
     70 H30        -6.3260   -1.9080   -3.6610 hc        1 MOL      0.052357
     71 H31        -6.1460   -3.3960   -2.8250 hc        1 MOL      0.052357
     72 N7         -6.5060   -2.5660    0.8500 n         1 MOL     -0.197993
     73 C23        -6.3120   -3.5070    1.9350 c3        1 MOL     -0.211058
     74 C24        -5.0630   -4.4020    1.8500 c         1 MOL      0.563740
     75 O13        -5.1120   -5.5000    2.3680 o         1 MOL     -0.549467
     76 H32        -6.0510   -1.6640    0.8450 hn        1 MOL      0.160148
     77 H33        -7.1840   -4.1550    1.9230 h1        1 MOL      0.108127
     78 H34        -6.3050   -2.8850    2.8300 h1        1 MOL      0.108127
     79 N8         -3.9750   -3.9040    1.1930 n         1 MOL     -0.209215
     80 C25        -2.7220   -4.6770    0.9760 c3        1 MOL     -0.461552
     81 C26        -1.5390   -3.6790    0.9800 c         1 MOL      0.794411
     82 O14        -1.6530   -2.6830    0.2420 o         1 MOL     -0.734107
     83 C27        -2.8060   -5.4600   -0.3890 c3        1 MOL      0.585724
     84 C28        -3.3500   -6.8710   -0.1310 c3        1 MOL     -0.603170
     85 O15        -3.7210   -4.8600   -1.3280 oh        1 MOL     -0.686764
     86 H35        -4.0240   -2.9640    0.8420 hn        1 MOL      0.199701
     87 H36        -2.6310   -5.3760    1.8130 h1        1 MOL      0.157805
     88 H37        -1.8380   -5.5120   -0.8860 h1        1 MOL     -0.048590
     89 H38        -3.7270   -3.9110   -1.1750 ho        1 MOL      0.538776
     90 H39        -3.2210   -7.5980   -0.9380 hc        1 MOL      0.151824
     91 H40        -2.9860   -7.2410    0.8220 hc        1 MOL      0.151824
     92 H41        -4.4310   -6.8380    0.0250 hc        1 MOL      0.151824
     93 N9         -0.5000   -3.9600    1.7230 n         1 MOL     -0.640662
     94 C29         0.7160   -3.1550    1.8480 c3        1 MOL      0.078751
     95 C30         1.8360   -3.5050    0.8630 c         1 MOL      0.641460
     96 O16         2.3210   -4.6030    1.0190 o         1 MOL     -0.602541
     97 C31         1.1340   -2.9570    3.2980 c3        1 MOL      0.228748
     98 C32         0.0450   -2.2030    4.0440 c3        1 MOL      0.068077
     99 C33         2.4260   -2.0430    3.1710 c3        1 MOL     -0.206510
    100 C34         0.2790   -2.2300    5.5810 c3        1 MOL     -0.363555
    101 H42        -0.5660   -4.7460    2.3570 hn        1 MOL      0.327778
    102 H43         0.4920   -2.1280    1.5240 h1        1 MOL     -0.003040
    103 H44         1.4010   -3.9310    3.7080 hc        1 MOL     -0.016816
    104 H45        -0.8970   -2.7050    3.8590 hc        1 MOL      0.021054
    105 H46        -0.0540   -1.1870    3.6740 hc        1 MOL      0.021054
    106 H47         2.8500   -1.7800    4.1460 hc        1 MOL      0.013766
    107 H48         3.2380   -2.4700    2.5750 hc        1 MOL      0.013766
    108 H49         2.1540   -1.0790    2.7350 hc        1 MOL      0.013766
    109 H50         0.2880   -3.2260    6.0080 hc        1 MOL      0.087425
    110 H51         1.1620   -1.6040    5.7680 hc        1 MOL      0.087425
    111 H52        -0.5680   -1.6500    5.9400 hc        1 MOL      0.087425
    112 N10         2.2950   -2.7000   -0.0710 n         1 MOL     -0.351692
    113 C35         3.5130   -3.0370   -0.9590 c3        1 MOL     -0.077069
    114 C36         4.7460   -2.7740   -0.1420 c         1 MOL      0.355234
    115 O17         4.7820   -2.0390    0.8110 o         1 MOL     -0.328347
    116 C37         3.5740   -2.1820   -2.2280 c3        1 MOL      0.061858
    117 C38         2.2920   -2.3070   -3.1340 c3        1 MOL     -0.407037
    118 O18         3.7830   -0.8160   -1.8950 oh        1 MOL     -0.289310
    119 H53         1.8230   -1.8430   -0.3230 hn        1 MOL      0.321046
    120 H54         3.4950   -4.0950   -1.2120 h1        1 MOL      0.105986
    121 H55         4.4440   -2.4520   -2.8360 h1        1 MOL      0.064383
    122 H56         3.1760   -0.3060   -2.4330 ho        1 MOL      0.361377
    123 H57         1.5380   -1.7990   -2.5270 hc        1 MOL      0.119191
    124 H58         2.4410   -1.8990   -4.1350 hc        1 MOL      0.119191
    125 H59         2.0470   -3.3690   -3.2450 hc        1 MOL      0.119191
    126 N11         5.8360   -3.3790   -0.6370 n         1 MOL     -0.154021
    127 C39         7.1160   -3.0730   -0.1320 c3        1 MOL     -0.208933
    128 C40         7.4780   -1.5710   -0.1310 c         1 MOL      0.290572
    129 O19         8.1810   -1.0510    0.7310 o         1 MOL     -0.456798
    130 C41         8.3310   -3.7920   -0.8270 c3        1 MOL      0.357089
    131 C42         8.4910   -5.2640   -0.5180 c3        1 MOL     -0.435678
    132 O20         8.0700   -3.5890   -2.2090 oh        1 MOL     -0.650900
    133 H60         5.7470   -4.1210   -1.3060 hn        1 MOL      0.239478
    134 H61         7.1110   -3.3480    0.9170 h1        1 MOL      0.133993
    135 H62         9.2180   -3.2430   -0.5090 h1        1 MOL      0.048394
    136 H63         8.8560   -3.8610   -2.6810 ho        1 MOL      0.418711
    137 H64         7.7390   -5.9020   -0.9920 hc        1 MOL      0.124989
    138 H65         9.4040   -5.5180   -1.0560 hc        1 MOL      0.124989
    139 H66         8.4540   -5.5050    0.5480 hc        1 MOL      0.124989
    140 N12         6.9930   -0.8690   -1.1400 n         1 MOL     -0.127078
    141 C43         7.1690    0.5690   -1.3520 c3        1 MOL     -0.000207
    142 C44         6.3190    1.3800   -0.3780 c         1 MOL      0.231635
    143 O21         6.8110    2.3840    0.1740 o         1 MOL     -0.529646
    144 C45         6.7530    0.8670   -2.8690 c3        1 MOL      0.002924
    145 C46         6.5800    2.3450   -3.1310 c3        1 MOL     -0.000057
    146 C47         6.5250    2.6270   -4.6110 c3        1 MOL      0.025715
    147 C48         6.2460    4.1120   -4.9060 c3        1 MOL     -0.229309
    148 N13         4.8900    4.4410   -4.4730 n4        1 MOL     -0.280198
    149 H67         6.5590   -1.3310   -1.9280 hn        1 MOL      0.192308
    150 H68         8.1930    0.9060   -1.1680 h1        1 MOL      0.122595
    151 H69         5.7650    0.4330   -3.0320 hc        1 MOL     -0.004329
    152 H70         7.5060    0.4670   -3.5490 hc        1 MOL     -0.004329
    153 H71         7.4820    2.8470   -2.7910 hc        1 MOL      0.020311
    154 H72         5.6600    2.7600   -2.7070 hc        1 MOL      0.020311
    155 H73         5.6930    2.0080   -4.9520 hc        1 MOL      0.045284
    156 H74         7.4740    2.2990   -5.0200 hc        1 MOL      0.045284
    157 H75         6.2630    4.3940   -5.9540 hx        1 MOL      0.166055
    158 H76         6.9520    4.6900   -4.3140 hx        1 MOL      0.166055
    159 H77         4.6360    4.2260   -3.5240 hn        1 MOL      0.306093
    160 H78         4.7210    5.4370   -4.5180 hn        1 MOL      0.306093
    161 H79         4.2480    4.0340   -5.1360 hn        1 MOL      0.306093
    162 N14         5.1310    0.8760    0.0860 n         1 MOL      0.479055
    163 C49         4.3610    1.5140    1.1330 c3        1 MOL     -0.372722
    164 C50         4.9000    1.5060    2.5510 c         1 MOL      0.672696
    165 O22         4.6720    2.5220    3.2280 o         1 MOL     -0.596637
    166 C51         2.9330    0.9050    1.0630 c3        1 MOL     -0.005600
    167 C52         2.0900    1.4920   -0.0720 c3        1 MOL     -0.153864
    168 C53         0.7830    0.7760   -0.3820 c         1 MOL      0.701173
    169 O23        -0.2250    1.4040   -0.7790 o         1 MOL     -0.728828
    170 O24         0.7040   -0.4550   -0.4790 o         1 MOL     -0.728828
    171 H80         4.7630    0.0050   -0.2730 hn        1 MOL     -0.416843
    172 H81         4.1990    2.5610    0.8580 h1        1 MOL      0.077738
    173 H82         2.4470    1.1620    2.0030 hc        1 MOL      0.109035
    174 H83         2.8560   -0.1790    0.9320 hc        1 MOL      0.109035
    175 H84         2.6860    1.4760   -0.9900 hc        1 MOL      0.006350
    176 H85         1.8520    2.5240    0.1530 hc        1 MOL      0.006350
    177 N15         5.5070    0.3710    2.9580 n         1 MOL     -0.370094
    178 C54         6.5770    0.2680    3.9740 c3        1 MOL     -0.111149
    179 H86         6.3830   -0.5890    4.6190 h1        1 MOL      0.079607
    180 H87         7.5390    0.1390    3.4780 h1        1 MOL      0.079607
    181 H88         6.5970    1.1770    4.5750 h1        1 MOL      0.079607
    182 H89         5.4350   -0.3910    2.3010 hn        1 MOL      0.289260
    183 Ca1        -1.8220   -0.6220   -1.4810 Ca        1 MOL      1.794550
    184 O25        -0.6790    0.3330   -3.7230 oh        1 MOL     -0.867311
    185 H90        -1.0770    1.2010   -3.8330 ho        1 MOL      0.405387
    186 H91        -0.3630    0.0970   -4.5890 ho        1 MOL      0.405387
    187 O26        -1.1710   -2.6300   -3.0110 oh        1 MOL     -0.867311
    188 H92        -1.4060   -3.4480   -3.4420 ho        1 MOL      0.405387
    189 H93        -0.2640   -2.4630   -3.2770 ho        1 MOL      0.405387
@<TRIPOS>BOND
     1    1    2 1   
     2    1    4 1   
     3    1    5 1   
     4    1    6 1   
     5    2    3 2   
     6    2    7 1   
     7    7    8 1   
     8    7   15 1   
     9    8    9 1   
    10    8   11 1   
    11    8   16 1   
    12    9   10 2   
    13    9   19 1   
    14   11   12 1   
    15   11   17 1   
    16   11   18 1   
    17   12   13 1   
    18   12   14 1   
    19   19   20 1   
    20   19   28 1   
    21   20   21 1   
    22   20   23 1   
    23   20   29 1   
    24   21   22 2   
    25   21   41 1   
    26   23   24 1   
    27   23   30 1   
    28   23   31 1   
    29   24   25 1   
    30   24   32 1   
    31   24   33 1   
    32   25   26 1   
    33   25   34 1   
    34   25   35 1   
    35   26   27 1   
    36   26   36 1   
    37   26   37 1   
    38   27   38 1   
    39   27   39 1   
    40   27   40 1   
    41   41   42 1   
    42   41   49 1   
    43   42   43 1   
    44   42   45 1   
    45   42   50 1   
    46   43   44 2   
    47   43   53 1   
    48   45   46 1   
    49   45   51 1   
    50   45   52 1   
    51   46   47 1   
    52   46   48 1   
    53   53   54 1   
    54   53   57 1   
    55   54   55 1   
    56   54   58 1   
    57   54   59 1   
    58   55   56 2   
    59   55   60 1   
    60   60   61 1   
    61   60   68 1   
    62   61   62 1   
    63   61   64 1   
    64   61   69 1   
    65   62   63 2   
    66   62   72 1   
    67   64   65 1   
    68   64   70 1   
    69   64   71 1   
    70   65   66 1   
    71   65   67 1   
    72   72   73 1   
    73   72   76 1   
    74   73   74 1   
    75   73   77 1   
    76   73   78 1   
    77   74   75 2   
    78   74   79 1   
    79   79   80 1   
    80   79   86 1   
    81   80   81 1   
    82   80   83 1   
    83   80   87 1   
    84   81   82 2   
    85   81   93 1   
    86   83   84 1   
    87   83   85 1   
    88   83   88 1   
    89   84   90 1   
    90   84   91 1   
    91   84   92 1   
    92   85   89 1   
    93   93   94 1   
    94   93  101 1   
    95   94   95 1   
    96   94   97 1   
    97   94  102 1   
    98   95   96 2   
    99   95  112 1   
   100   97   98 1   
   101   97   99 1   
   102   97  103 1   
   103   98  100 1   
   104   98  104 1   
   105   98  105 1   
   106   99  106 1   
   107   99  107 1   
   108   99  108 1   
   109  100  109 1   
   110  100  110 1   
   111  100  111 1   
   112  112  113 1   
   113  112  119 1   
   114  113  114 1   
   115  113  116 1   
   116  113  120 1   
   117  114  115 2   
   118  114  126 1   
   119  116  117 1   
   120  116  118 1   
   121  116  121 1   
   122  117  123 1   
   123  117  124 1   
   124  117  125 1   
   125  118  122 1   
   126  126  127 1   
   127  126  133 1   
   128  127  128 1   
   129  127  130 1   
   130  127  134 1   
   131  128  129 2   
   132  128  140 1   
   133  130  131 1   
   134  130  132 1   
   135  130  135 1   
   136  131  137 1   
   137  131  138 1   
   138  131  139 1   
   139  132  136 1   
   140  140  141 1   
   141  140  149 1   
   142  141  142 1   
   143  141  144 1   
   144  141  150 1   
   145  142  143 2   
   146  142  162 1   
   147  144  145 1   
   148  144  151 1   
   149  144  152 1   
   150  145  146 1   
   151  145  153 1   
   152  145  154 1   
   153  146  147 1   
   154  146  155 1   
   155  146  156 1   
   156  147  148 1   
   157  147  157 1   
   158  147  158 1   
   159  148  159 1   
   160  148  160 1   
   161  148  161 1   
   162  162  163 1   
   163  162  171 1   
   164  163  164 1   
   165  163  166 1   
   166  163  172 1   
   167  164  165 2   
   168  164  177 1   
   169  166  167 1   
   170  166  173 1   
   171  166  174 1   
   172  167  168 1   
   173  167  175 1   
   174  167  176 1   
   175  168  169 1   
   176  168  170 1   
   177  177  178 1   
   178  177  182 1   
   179  178  179 1   
   180  178  180 1   
   181  178  181 1   
   182  184  185 1   
   183  184  186 1   
   184  187  188 1   
   185  187  189 1   
@<TRIPOS>SUBSTRUCTURE
     1 MOL         1 TEMP              0 ****  ****    0 ROOT
