@<TRIPOS>MOLECULE
MOL
  183   181     1     0     0
SMALL
resp


@<TRIPOS>ATOM
      1 C1         -0.3800    1.6010    6.1650 c3        1 MOL     -0.220462
      2 C2         -0.7390    1.6660    4.7250 c         1 MOL      0.780848
      3 O1          0.0410    1.9680    3.7900 o         1 MOL     -0.619089
      4 H1         -1.2850    1.4710    6.7600 hc        1 MOL      0.049867
      5 H2          0.2900    0.7590    6.3360 hc        1 MOL      0.049867
      6 H3          0.1170    2.5260    6.4580 hc        1 MOL      0.049867
      7 N1         -2.0040    1.1280    4.4330 n         1 MOL     -0.748765
      8 C3         -2.5730    1.2100    3.1230 c3        1 MOL      0.051499
      9 C4         -3.1360    2.6040    2.8050 c         1 MOL      0.635218
     10 O2         -4.0230    3.1460    3.5080 o         1 MOL     -0.592826
     11 C5         -3.5770    0.0780    3.1390 c3        1 MOL     -0.277394
     12 C6         -4.3820   -0.0180    1.8150 c         1 MOL      0.857243
     13 O3         -5.4810   -0.6650    1.9150 o         1 MOL     -0.648698
     14 O4         -3.9540    0.5910    0.7980 o         1 MOL     -0.648698
     15 H4         -2.6550    0.9120    5.1660 hn        1 MOL      0.381861
     16 H5         -1.7850    0.9830    2.4130 h1        1 MOL      0.118531
     17 H6         -4.2780    0.3700    3.9130 hc        1 MOL      0.051740
     18 H7         -3.1430   -0.9040    3.3420 hc        1 MOL      0.051740
     19 N2         -2.6830    3.2550    1.7150 n         1 MOL     -0.375858
     20 C7         -2.9550    4.6910    1.3280 c3        1 MOL     -0.069267
     21 C8         -4.2530    4.7480    0.4730 c         1 MOL      0.426769
     22 O5         -4.9760    5.7600    0.4370 o         1 MOL     -0.603532
     23 C9         -1.6830    5.0940    0.4700 c3        1 MOL      0.289662
     24 C10        -0.4190    5.1110    1.3130 c3        1 MOL      0.162782
     25 C11        -1.8460    6.5140   -0.0860 c3        1 MOL     -0.324125
     26 C12         0.9000    5.7630    0.8000 c3        1 MOL     -0.353950
     27 H8         -2.1120    2.6890    1.0930 hn        1 MOL      0.131485
     28 H9         -3.0080    5.2980    2.2310 h1        1 MOL      0.081432
     29 H10        -1.6160    4.4350   -0.3930 hc        1 MOL     -0.015138
     30 H11        -0.1280    4.0680    1.4400 hc        1 MOL     -0.044652
     31 H12        -0.7110    5.4810    2.2890 hc        1 MOL     -0.044652
     32 H13        -2.7420    6.5530   -0.7110 hc        1 MOL      0.055997
     33 H14        -1.8740    7.1560    0.7940 hc        1 MOL      0.055997
     34 H15        -0.9460    6.8000   -0.6320 hc        1 MOL      0.055997
     35 H16         1.6520    5.4640    1.5410 hc        1 MOL      0.083978
     36 H17         1.2190    5.3330   -0.1500 hc        1 MOL      0.083978
     37 H18         0.7390    6.8330    0.7090 hc        1 MOL      0.083978
     38 N3         -4.3600    3.8500   -0.4460 n         1 MOL     -0.064403
     39 C13        -5.3790    3.9440   -1.5420 c3        1 MOL     -0.032948
     40 C14        -6.5910    3.0310   -1.3520 c         1 MOL      0.367352
     41 O6         -7.6530    3.1450   -1.9520 o         1 MOL     -0.544733
     42 C15        -4.6220    3.8310   -2.8880 c3        1 MOL     -0.252532
     43 C16        -3.5820    2.7400   -3.0700 c         1 MOL      0.824167
     44 O7         -2.8610    2.7300   -4.1060 o         1 MOL     -0.726084
     45 O8         -3.4700    1.8310   -2.2380 o         1 MOL     -0.726084
     46 H19        -3.8730    2.9680   -0.4240 hn        1 MOL      0.195862
     47 H20        -5.7700    4.9600   -1.5880 h1        1 MOL      0.107875
     48 H21        -4.1880    4.8030   -3.1290 hc        1 MOL      0.058111
     49 H22        -5.3900    3.6770   -3.6440 hc        1 MOL      0.058111
     50 N4         -6.4930    2.1070   -0.4370 n         1 MOL      0.048165
     51 C17        -7.6000    1.5150    0.3370 c3        1 MOL     -0.096485
     52 C18        -8.1780    0.2410   -0.2000 c         1 MOL      0.592398
     53 O9         -9.3040    0.2090   -0.6680 o         1 MOL     -0.588097
     54 H23        -5.5710    2.1280   -0.0110 hn        1 MOL     -0.004611
     55 H24        -8.4180    2.2280    0.4550 h1        1 MOL      0.043122
     56 H25        -7.3450    1.2510    1.3680 h1        1 MOL      0.043122
     57 N5         -7.3000   -0.7900   -0.2720 n         1 MOL     -0.350888
     58 C19        -7.5390   -2.0380   -1.0170 c3        1 MOL      0.077197
     59 C20        -7.1770   -3.2570   -0.1850 c         1 MOL      0.378112
     60 O10        -7.3410   -4.3660   -0.6340 o         1 MOL     -0.550027
     61 C21        -6.5860   -2.0830   -2.1680 c3        1 MOL     -0.017078
     62 C22        -5.1260   -1.6720   -1.8600 c         1 MOL      0.622809
     63 O11        -4.5140   -1.0030   -2.7330 o         1 MOL     -0.702989
     64 O12        -4.5530   -2.0480   -0.8220 o         1 MOL     -0.702989
     65 H26        -6.3570   -0.6840    0.0550 hn        1 MOL      0.033431
     66 H27        -8.5750   -2.1050   -1.3360 h1        1 MOL      0.068662
     67 H28        -7.0270   -1.4660   -2.9550 hc        1 MOL      0.013647
     68 H29        -6.5090   -3.0820   -2.5930 hc        1 MOL      0.013647
     69 N6         -6.6150   -3.1090    1.0140 n         1 MOL     -0.210733
     70 C23        -6.2470   -4.2820    1.8440 c3        1 MOL     -0.127453
     71 C24        -4.9150   -4.9250    1.5740 c         1 MOL      0.609419
     72 O13        -4.6750   -6.0190    2.0490 o         1 MOL     -0.612167
     73 H30        -6.2540   -2.2090    1.2880 hn        1 MOL      0.190402
     74 H31        -7.0510   -4.9950    1.6540 h1        1 MOL      0.066030
     75 H32        -6.3480   -4.0050    2.8880 h1        1 MOL      0.066030
     76 N7         -3.9600   -4.1810    0.9900 n         1 MOL     -0.347989
     77 C25        -2.6030   -4.5990    0.8180 c3        1 MOL     -0.038781
     78 C26        -1.6710   -3.3880    0.9440 c         1 MOL      0.747686
     79 O14        -2.0730   -2.2110    0.7600 o         1 MOL     -0.812708
     80 C27        -2.4690   -5.3410   -0.5570 c3        1 MOL     -0.126604
     81 C28        -2.8250   -4.7340   -1.8640 c3        1 MOL     -0.212717
     82 C29        -1.7650   -3.8170   -2.4540 c         1 MOL      0.583139
     83 N8         -0.7730   -4.4390   -3.1030 n         1 MOL     -0.755759
     84 O15        -1.8720   -2.5900   -2.4420 o         1 MOL     -0.520579
     85 H33        -4.2560   -3.2960    0.6150 hn        1 MOL      0.329362
     86 H34        -2.3550   -5.2920    1.6230 h1        1 MOL      0.066112
     87 H35        -3.1450   -6.1820   -0.3950 hc        1 MOL      0.041683
     88 H36        -1.5190   -5.8750   -0.5990 hc        1 MOL      0.041683
     89 H37        -3.7620   -4.1930   -1.7710 hc        1 MOL      0.107542
     90 H38        -3.0450   -5.4770   -2.6330 hc        1 MOL      0.107542
     91 H39        -0.7310   -5.4410   -3.1610 hn        1 MOL      0.353558
     92 H40         0.0240   -3.8750   -3.3750 hn        1 MOL      0.353558
     93 N9         -0.4370   -3.7450    1.2000 n         1 MOL     -0.465283
     94 C30         0.6550   -2.7860    1.5350 c3        1 MOL     -0.015769
     95 C31         1.9190   -3.1470    0.8180 c         1 MOL      0.434332
     96 O16         2.3070   -4.3130    0.9090 o         1 MOL     -0.556141
     97 C32         0.8270   -2.7020    3.1040 c3        1 MOL      0.375999
     98 C33         1.6640   -1.4880    3.4920 c3        1 MOL     -0.522835
     99 C34        -0.4400   -2.6350    3.9130 c3        1 MOL     -0.522835
    100 H41        -0.2880   -4.6820    1.5350 hn        1 MOL      0.281545
    101 H42         0.3970   -1.7680    1.2460 h1        1 MOL      0.115427
    102 H43         1.3830   -3.5900    3.4330 hc        1 MOL     -0.060971
    103 H44         1.9940   -1.6320    4.5170 hc        1 MOL      0.129797
    104 H45         2.4970   -1.3790    2.7970 hc        1 MOL      0.129797
    105 H46         1.0610   -0.5750    3.4740 hc        1 MOL      0.129797
    106 H47        -0.9680   -1.7000    3.7200 hc        1 MOL      0.129797
    107 H48        -1.1130   -3.4300    3.5670 hc        1 MOL      0.129797
    108 H49        -0.2830   -2.6780    4.9870 hc        1 MOL      0.129797
    109 N10         2.4300   -2.2140   -0.0370 n         1 MOL     -0.205312
    110 C35         3.4750   -2.3660   -1.0590 c3        1 MOL      0.039269
    111 C36         4.8360   -1.8920   -0.4500 c         1 MOL      0.349998
    112 O17         4.7460   -1.0080    0.4070 o         1 MOL     -0.347018
    113 C37         3.1180   -1.6460   -2.2930 c3        1 MOL     -0.239887
    114 C38         1.7880   -2.0670   -2.9880 c         1 MOL      0.768488
    115 N11         0.6860   -1.4690   -2.5790 n         1 MOL     -0.888718
    116 O18         1.7290   -2.9400   -3.8010 o         1 MOL     -0.621919
    117 H50         1.9400   -1.3310   -0.1390 hn        1 MOL      0.243578
    118 H51         3.5560   -3.3910   -1.4070 h1        1 MOL      0.058036
    119 H52         3.9860   -1.7780   -2.9310 hc        1 MOL      0.023204
    120 H53         3.0030   -0.5690   -2.1370 hc        1 MOL      0.023204
    121 H54         0.6800   -0.7450   -1.8690 hn        1 MOL      0.402948
    122 H55        -0.1330   -1.7440   -3.1000 hn        1 MOL      0.402948
    123 N12         6.0490   -2.2230   -0.8640 n         1 MOL     -0.384396
    124 C39         7.2390   -1.5720   -0.4070 c3        1 MOL     -0.034417
    125 C40         7.1730   -0.0290   -0.4020 c         1 MOL      0.475270
    126 O19         7.5290    0.5260    0.5790 o         1 MOL     -0.488312
    127 C41         8.5000   -2.1940   -1.0800 c3        1 MOL     -0.135560
    128 C42         9.7830   -1.6700   -0.4390 ca        1 MOL     -0.138512
    129 C43        10.2220   -2.3310    0.6650 ca        1 MOL      0.012118
    130 C44        10.5190   -0.5420   -0.9300 ca        1 MOL      0.012118
    131 C45        11.4430   -1.9210    1.2920 ca        1 MOL     -0.385591
    132 C46        11.7100   -0.1250   -0.2910 ca        1 MOL     -0.385591
    133 C47        12.1520   -0.7520    0.9010 ca        1 MOL      0.464874
    134 O20        13.2960   -0.4010    1.5440 oh        1 MOL     -0.537245
    135 H56         6.1670   -3.0160   -1.4750 hn        1 MOL      0.277689
    136 H57         7.2600   -1.8960    0.6390 h1        1 MOL      0.121660
    137 H58         8.6150   -1.9980   -2.1510 hc        1 MOL      0.074211
    138 H59         8.4400   -3.2870   -1.0410 hc        1 MOL      0.074211
    139 H60         9.6850   -3.2090    1.0090 ha        1 MOL      0.104360
    140 H61        10.1840   -0.0790   -1.8460 ha        1 MOL      0.104360
    141 H62        11.8310   -2.4490    2.1440 ha        1 MOL      0.156266
    142 H63        12.3330    0.6350   -0.7430 ha        1 MOL      0.156266
    143 H64        13.6720    0.3670    1.1190 ho        1 MOL      0.382408
    144 N13         6.6000    0.5810   -1.4440 n         1 MOL     -0.311526
    145 C48         6.3730    2.0490   -1.5110 c3        1 MOL      0.115575
    146 C49         5.5550    2.4730   -0.3260 c         1 MOL      0.361691
    147 O21         5.8390    3.5280    0.2670 o         1 MOL     -0.537926
    148 C50         5.8910    2.5950   -2.8910 c3        1 MOL     -0.283898
    149 C51         4.4290    2.2080   -3.1830 c3        1 MOL     -0.110878
    150 C52         4.2460    2.2600   -4.7150 c         1 MOL      0.678234
    151 O22         4.9620    2.9490   -5.4690 o         1 MOL     -0.726064
    152 O23         3.2710    1.6530   -5.2400 o         1 MOL     -0.726064
    153 H65         6.4900    0.0160   -2.2750 hn        1 MOL      0.258201
    154 H66         7.3700    2.4340   -1.3360 h1        1 MOL      0.025586
    155 H67         6.5460    2.0940   -3.6000 hc        1 MOL      0.085723
    156 H68         5.9030    3.6820   -2.9140 hc        1 MOL      0.085723
    157 H69         3.7530    2.9340   -2.7450 hc        1 MOL      0.055771
    158 H70         4.2870    1.2060   -2.7820 hc        1 MOL      0.055771
    159 N14         4.4720    1.7690    0.0860 n         1 MOL     -0.020832
    160 C53         3.5940    2.1870    1.1870 c3        1 MOL     -0.347656
    161 C54         4.2380    1.8960    2.5590 c         1 MOL      0.489877
    162 O24         4.2350    2.6170    3.5400 o         1 MOL     -0.543078
    163 C55         2.2270    1.6580    0.9860 c3        1 MOL      0.339757
    164 C56         1.4470    1.9980   -0.2460 c3        1 MOL      0.049999
    165 C57         0.1690    1.2200   -0.3370 c         1 MOL      0.621341
    166 O25        -0.9400    1.8160   -0.3920 o         1 MOL     -0.703988
    167 O26         0.1430   -0.0040   -0.4040 o         1 MOL     -0.703988
    168 H71         4.2810    0.8360   -0.2600 hn        1 MOL      0.193227
    169 H72         3.4980    3.2700    1.1960 h1        1 MOL      0.147734
    170 H73         1.6440    1.9510    1.8570 hc        1 MOL     -0.035002
    171 H74         2.2190    0.5690    1.0870 hc        1 MOL     -0.035002
    172 H75         2.0380    1.7990   -1.1310 hc        1 MOL     -0.035071
    173 H76         1.3730    3.0840   -0.2780 hc        1 MOL     -0.035071
    174 N15         4.7770    0.6540    2.7020 n         1 MOL     -0.124705
    175 C58         5.6430    0.2450    3.8310 c3        1 MOL     -0.397908
    176 H77         5.0340   -0.2250    4.6030 h1        1 MOL      0.126215
    177 H78         6.3910   -0.4650    3.4770 h1        1 MOL      0.126215
    178 H79         6.1400    1.1220    4.2440 h1        1 MOL      0.126215
    179 H80         4.6380    0.0020    1.9340 hn        1 MOL      0.136470
    180 Ca1        -2.4630   -0.3180   -1.0430 Ca        1 MOL      1.781899
    181 O27        -1.7190    0.1420   -3.5870 oh        1 MOL     -0.837388
    182 H81        -1.4120   -0.3550   -4.3500 ho        1 MOL      0.395120
    183 H82        -2.2110    0.8700   -3.9640 ho        1 MOL      0.395120
@<TRIPOS>BOND
     1    1    2 1   
     2    1    4 1   
     3    1    5 1   
     4    1    6 1   
     5    2    3 2   
     6    2    7 1   
     7    7    8 1   
     8    7   15 1   
     9    8    9 1   
    10    8   11 1   
    11    8   16 1   
    12    9   10 2   
    13    9   19 1   
    14   11   12 1   
    15   11   17 1   
    16   11   18 1   
    17   12   13 1   
    18   12   14 1   
    19   19   20 1   
    20   19   27 1   
    21   20   21 1   
    22   20   23 1   
    23   20   28 1   
    24   21   22 2   
    25   21   38 1   
    26   23   24 1   
    27   23   25 1   
    28   23   29 1   
    29   24   26 1   
    30   24   30 1   
    31   24   31 1   
    32   25   32 1   
    33   25   33 1   
    34   25   34 1   
    35   26   35 1   
    36   26   36 1   
    37   26   37 1   
    38   38   39 1   
    39   38   46 1   
    40   39   40 1   
    41   39   42 1   
    42   39   47 1   
    43   40   41 2   
    44   40   50 1   
    45   42   43 1   
    46   42   48 1   
    47   42   49 1   
    48   43   44 1   
    49   43   45 1   
    50   50   51 1   
    51   50   54 1   
    52   51   52 1   
    53   51   55 1   
    54   51   56 1   
    55   52   53 2   
    56   52   57 1   
    57   57   58 1   
    58   57   65 1   
    59   58   59 1   
    60   58   61 1   
    61   58   66 1   
    62   59   60 2   
    63   59   69 1   
    64   61   62 1   
    65   61   67 1   
    66   61   68 1   
    67   62   63 1   
    68   62   64 1   
    69   69   70 1   
    70   69   73 1   
    71   70   71 1   
    72   70   74 1   
    73   70   75 1   
    74   71   72 2   
    75   71   76 1   
    76   76   77 1   
    77   76   85 1   
    78   77   78 1   
    79   77   80 1   
    80   77   86 1   
    81   78   79 2   
    82   78   93 1   
    83   80   81 1   
    84   80   87 1   
    85   80   88 1   
    86   81   82 1   
    87   81   89 1   
    88   81   90 1   
    89   82   83 1   
    90   82   84 2   
    91   83   91 1   
    92   83   92 1   
    93   93   94 1   
    94   93  100 1   
    95   94   95 1   
    96   94   97 1   
    97   94  101 1   
    98   95   96 2   
    99   95  109 1   
   100   97   98 1   
   101   97   99 1   
   102   97  102 1   
   103   98  103 1   
   104   98  104 1   
   105   98  105 1   
   106   99  106 1   
   107   99  107 1   
   108   99  108 1   
   109  109  110 1   
   110  109  117 1   
   111  110  111 1   
   112  110  113 1   
   113  110  118 1   
   114  111  112 2   
   115  111  123 1   
   116  113  114 1   
   117  113  119 1   
   118  113  120 1   
   119  114  115 1   
   120  114  116 2   
   121  115  121 1   
   122  115  122 1   
   123  123  124 1   
   124  123  135 1   
   125  124  125 1   
   126  124  127 1   
   127  124  136 1   
   128  125  126 2   
   129  125  144 1   
   130  127  128 1   
   131  127  137 1   
   132  127  138 1   
   133  128  129 ar  
   134  128  130 ar  
   135  129  131 ar  
   136  129  139 1   
   137  130  132 ar  
   138  130  140 1   
   139  131  133 ar  
   140  131  141 1   
   141  132  133 ar  
   142  132  142 1   
   143  133  134 1   
   144  134  143 1   
   145  144  145 1   
   146  144  153 1   
   147  145  146 1   
   148  145  148 1   
   149  145  154 1   
   150  146  147 2   
   151  146  159 1   
   152  148  149 1   
   153  148  155 1   
   154  148  156 1   
   155  149  150 1   
   156  149  157 1   
   157  149  158 1   
   158  150  151 1   
   159  150  152 1   
   160  159  160 1   
   161  159  168 1   
   162  160  161 1   
   163  160  163 1   
   164  160  169 1   
   165  161  162 2   
   166  161  174 1   
   167  163  164 1   
   168  163  170 1   
   169  163  171 1   
   170  164  165 1   
   171  164  172 1   
   172  164  173 1   
   173  165  166 1   
   174  165  167 1   
   175  174  175 1   
   176  174  179 1   
   177  175  176 1   
   178  175  177 1   
   179  175  178 1   
   180  181  182 1   
   181  181  183 1   
@<TRIPOS>SUBSTRUCTURE
     1 MOL         1 TEMP              0 ****  ****    0 ROOT
