@<TRIPOS>MOLECULE
MOL
  179   176     1     0     0
SMALL
resp


@<TRIPOS>ATOM
      1 C1          0.0040    4.8360    5.0020 c3        1 MOL     -0.353708
      2 C2         -0.0190    4.1770    3.6320 c         1 MOL      0.602400
      3 O1          0.9600    4.3510    2.8770 o         1 MOL     -0.551450
      4 H1          0.8600    5.5080    5.0680 hc        1 MOL      0.097538
      5 H2         -0.9150    5.4050    5.1480 hc        1 MOL      0.097538
      6 H3          0.0840    4.0700    5.7740 hc        1 MOL      0.097538
      7 N1         -1.1050    3.4410    3.2700 n         1 MOL     -0.401309
      8 C3         -1.4470    3.0320    1.9250 c3        1 MOL      0.023047
      9 C4         -2.0960    4.1720    1.0890 c         1 MOL      0.188452
     10 O2         -3.1820    4.6770    1.3190 o         1 MOL     -0.459374
     11 C5         -2.4990    1.9360    1.9300 c3        1 MOL     -0.000540
     12 C6         -2.6520    1.3000    0.5410 c         1 MOL      0.715742
     13 O3         -1.9400    1.7430   -0.3920 o         1 MOL     -0.757660
     14 O4         -3.2470    0.1890    0.3900 o         1 MOL     -0.757660
     15 H4         -1.8040    3.2250    3.9690 hn        1 MOL      0.275626
     16 H5         -0.4810    2.6700    1.5670 h1        1 MOL      0.105283
     17 H6         -3.4460    2.2100    2.3970 hc        1 MOL      0.022456
     18 H7         -2.0700    1.1960    2.6140 hc        1 MOL      0.022456
     19 N2         -1.2580    4.6070    0.2010 n         1 MOL      0.022590
     20 C7         -1.4320    5.7380   -0.6460 c3        1 MOL     -0.044816
     21 C8         -2.3400    5.4580   -1.8390 c         1 MOL      0.372075
     22 O5         -2.7810    6.3960   -2.5610 o         1 MOL     -0.536887
     23 C9         -0.0840    6.2710   -1.1470 c3        1 MOL     -0.095671
     24 C10         0.8580    6.6690    0.0120 c3        1 MOL      0.088163
     25 C11         0.3060    7.7250    1.0050 c3        1 MOL     -0.329788
     26 C12         1.3120    7.7790    2.1730 c3        1 MOL      0.322269
     27 N3          1.3050    9.0040    2.9680 n4        1 MOL     -0.510152
     28 H8         -0.3870    4.1080    0.1750 hn        1 MOL      0.214511
     29 H9         -1.9150    6.5190   -0.0600 h1        1 MOL      0.082887
     30 H10        -0.1460    7.1820   -1.7510 hc        1 MOL      0.063410
     31 H11         0.4500    5.5380   -1.7570 hc        1 MOL      0.063410
     32 H12         1.8100    7.0020   -0.4060 hc        1 MOL      0.005195
     33 H13         1.0860    5.7630    0.5850 hc        1 MOL      0.005195
     34 H14        -0.7190    7.5580    1.3200 hc        1 MOL      0.100883
     35 H15         0.4120    8.6530    0.4410 hc        1 MOL      0.100883
     36 H16         2.3250    7.6810    1.8000 hx        1 MOL      0.017963
     37 H17         1.2120    6.9000    2.8060 hx        1 MOL      0.017963
     38 H18         1.9890    8.8120    3.6820 hn        1 MOL      0.356122
     39 H19         1.6020    9.7430    2.3590 hn        1 MOL      0.356122
     40 H20         0.3910    9.2510    3.3190 hn        1 MOL      0.356122
     41 N4         -2.7640    4.1720   -2.0290 n         1 MOL     -0.145228
     42 C13        -3.8640    3.8840   -2.9110 c3        1 MOL      0.052539
     43 C14        -5.1180    3.2910   -2.1600 c         1 MOL      0.327829
     44 O6         -6.1670    3.1210   -2.7940 o         1 MOL     -0.494218
     45 C15        -3.3590    3.0180   -4.1380 c3        1 MOL     -0.265567
     46 C16        -2.6730    1.7110   -3.6060 c         1 MOL      0.788651
     47 O7         -1.4540    1.5440   -3.6210 o         1 MOL     -0.732418
     48 O8         -3.4480    0.8650   -3.2020 o         1 MOL     -0.732418
     49 H21        -2.1850    3.4650   -1.6130 hn        1 MOL      0.140472
     50 H22        -4.1920    4.8250   -3.3290 h1        1 MOL      0.115261
     51 H23        -2.6080    3.5730   -4.6970 hc        1 MOL      0.064044
     52 H24        -4.2370    2.8600   -4.7520 hc        1 MOL      0.064044
     53 N5         -4.9610    3.1560   -0.8150 n         1 MOL     -0.019457
     54 C17        -6.0800    2.7760    0.0930 c3        1 MOL     -0.357940
     55 C18        -6.6770    1.3910   -0.0810 c         1 MOL      0.601560
     56 O9         -7.5680    1.1050    0.6890 o         1 MOL     -0.562986
     57 H25        -4.0980    3.4230   -0.3690 hn        1 MOL      0.043555
     58 H26        -6.9490    3.4000   -0.1050 h1        1 MOL      0.152990
     59 H27        -5.6490    2.8660    1.0850 h1        1 MOL      0.152990
     60 N6         -6.1190    0.4820   -0.8780 n         1 MOL     -0.335559
     61 C19        -6.5650   -0.9530   -0.9200 c3        1 MOL     -0.035019
     62 C20        -6.2190   -1.8550    0.3840 c         1 MOL      0.300757
     63 O10        -6.8160   -2.9180    0.5530 o         1 MOL     -0.457246
     64 C21        -6.0270   -1.6030   -2.2110 c3        1 MOL     -0.022813
     65 C22        -4.8080   -2.4700   -2.1130 c         1 MOL      0.504318
     66 N7         -4.9050   -3.6800   -2.6960 n         1 MOL     -0.605554
     67 O11        -3.7560   -2.1240   -1.5000 o         1 MOL     -0.671325
     68 H28        -5.5160    0.7980   -1.6190 hn        1 MOL      0.251321
     69 H29        -7.6510   -0.9840   -0.9070 h1        1 MOL      0.106102
     70 H30        -5.7960   -0.9010   -3.0090 hc        1 MOL      0.053869
     71 H31        -6.7920   -2.1740   -2.7420 hc        1 MOL      0.053869
     72 H32        -5.6920   -3.9510   -3.2640 hn        1 MOL      0.330756
     73 H33        -4.0900   -4.2840   -2.6400 hn        1 MOL      0.330756
     74 N8         -5.2760   -1.4190    1.2290 n         1 MOL      0.010349
     75 C23        -5.1020   -1.9950    2.5910 c3        1 MOL     -0.341144
     76 C24        -3.7660   -2.8590    2.7100 c         1 MOL      0.580497
     77 O12        -3.4820   -3.6310    3.6100 o         1 MOL     -0.578389
     78 H34        -4.7610   -0.5580    1.0670 hn        1 MOL      0.176354
     79 H35        -5.9250   -2.6970    2.7330 h1        1 MOL      0.141551
     80 H36        -5.2060   -1.1780    3.3070 h1        1 MOL      0.141551
     81 N9         -2.9840   -2.6950    1.6730 n         1 MOL     -0.443628
     82 C25        -1.7930   -3.4720    1.4520 c3        1 MOL      0.624191
     83 C26        -0.6340   -2.5980    1.0970 c         1 MOL      0.133240
     84 O13        -0.7700   -1.5770    0.4080 o         1 MOL     -0.510916
     85 C27        -1.9530   -4.6050    0.4180 c3        1 MOL      0.022958
     86 C28        -3.1270   -5.5850    0.7300 ca        1 MOL      0.112790
     87 C29        -4.4630   -5.2700    0.4290 ca        1 MOL     -0.299866
     88 C30        -2.8520   -6.8440    1.3150 ca        1 MOL     -0.299866
     89 C31        -5.5090   -6.0670    0.8150 ca        1 MOL     -0.101831
     90 C32        -3.8930   -7.6670    1.7190 ca        1 MOL     -0.101831
     91 C33        -5.2140   -7.2820    1.3870 ca        1 MOL      0.220507
     92 O14        -6.2760   -8.0470    1.7110 oh        1 MOL     -0.444748
     93 H37        -3.1490   -1.9480    1.0120 hn        1 MOL      0.257005
     94 H38        -1.4520   -3.9990    2.3320 h1        1 MOL     -0.070633
     95 H39        -1.0690   -5.2380    0.4410 hc        1 MOL     -0.026159
     96 H40        -2.0030   -4.2230   -0.6030 hc        1 MOL     -0.026159
     97 H41        -4.6340   -4.2660    0.0670 ha        1 MOL      0.141124
     98 H42        -1.8060   -7.0400    1.5040 ha        1 MOL      0.141124
     99 H43        -6.5370   -5.8810    0.5560 ha        1 MOL      0.111754
    100 H44        -3.6830   -8.5720    2.2500 ha        1 MOL      0.111754
    101 H45        -5.9240   -8.7730    2.2330 ho        1 MOL      0.333258
    102 N10         0.5400   -2.8950    1.6930 n         1 MOL     -0.504214
    103 C34         1.8190   -2.2530    1.4500 c3        1 MOL      0.105495
    104 C35         2.8510   -3.2940    0.9500 c         1 MOL      0.492764
    105 O15         3.0720   -4.3130    1.5980 o         1 MOL     -0.554516
    106 C36         2.2380   -1.6290    2.7950 c3        1 MOL      0.084134
    107 C37         1.3000   -0.4300    3.1150 c3        1 MOL      0.137673
    108 C38         3.6770   -1.0410    2.8110 c3        1 MOL     -0.167068
    109 C39         1.4890    0.3560    4.3770 c3        1 MOL     -0.328749
    110 H46         0.5190   -3.6910    2.3240 hn        1 MOL      0.316814
    111 H47         1.7190   -1.3940    0.7890 h1        1 MOL      0.075606
    112 H48         2.2020   -2.4600    3.4990 hc        1 MOL      0.004026
    113 H49         0.3400   -0.9540    3.1610 hc        1 MOL     -0.002865
    114 H50         1.2660    0.2850    2.2880 hc        1 MOL     -0.002865
    115 H51         3.8200   -0.1150    2.2480 hc        1 MOL      0.029706
    116 H52         3.8470   -0.8560    3.8750 hc        1 MOL      0.029706
    117 H53         4.4180   -1.7770    2.4980 hc        1 MOL      0.029706
    118 H54         0.4820    0.6590    4.7000 hc        1 MOL      0.077577
    119 H55         1.9960   -0.2620    5.1100 hc        1 MOL      0.077577
    120 H56         2.1810    1.1640    4.1290 hc        1 MOL      0.077577
    121 N11         3.5720   -2.9360   -0.0830 n         1 MOL     -0.167192
    122 C40         4.6900   -3.6230   -0.6970 c3        1 MOL     -0.059557
    123 C41         6.0330   -3.2020   -0.0910 c         1 MOL      0.542909
    124 O16         6.1210   -2.3000    0.7600 o         1 MOL     -0.474686
    125 C42         4.6710   -3.3280   -2.2230 c3        1 MOL      0.006206
    126 O17         4.6510   -1.8960   -2.5420 oh        1 MOL     -0.598760
    127 H57         3.3130   -2.1060   -0.6030 hn        1 MOL      0.126884
    128 H58         4.6410   -4.7060   -0.6390 h1        1 MOL      0.063692
    129 H59         3.6440   -3.6290   -2.4210 h1        1 MOL      0.066416
    130 H60         5.3840   -3.9640   -2.7440 h1        1 MOL      0.066416
    131 H61         3.7300   -1.6190   -2.5130 ho        1 MOL      0.444249
    132 N12         7.1210   -3.6640   -0.6990 n         1 MOL     -0.501436
    133 C43         8.4070   -3.2000   -0.4720 c3        1 MOL      0.223347
    134 C44         8.6450   -1.7440   -0.8250 c         1 MOL      0.458455
    135 O18         9.0940   -1.0460    0.0710 o         1 MOL     -0.512734
    136 C45         9.3810   -4.1060   -1.3260 c3        1 MOL     -0.226745
    137 H62         7.0010   -4.4000   -1.3800 hn        1 MOL      0.283957
    138 H63         8.6660   -3.3260    0.5810 h1        1 MOL      0.049707
    139 H64         9.2360   -5.1680   -1.1290 hc        1 MOL      0.060246
    140 H65         9.3030   -3.8730   -2.3860 hc        1 MOL      0.060246
    141 H66        10.3730   -3.8250   -0.9660 hc        1 MOL      0.060246
    142 N13         8.1380   -1.2980   -1.9650 n         1 MOL     -0.449397
    143 C46         8.2940    0.0950   -2.3220 c3        1 MOL      0.191600
    144 C47         7.4120    0.9750   -1.4170 c         1 MOL      0.366800
    145 O19         7.9410    1.9800   -0.9340 o         1 MOL     -0.526524
    146 C48         7.8740    0.2760   -3.7900 c3        1 MOL     -0.343816
    147 H67         7.7730   -1.8970   -2.7010 hn        1 MOL      0.323513
    148 H68         9.3180    0.4400   -2.2100 h1        1 MOL      0.071731
    149 H69         6.8370    0.0010   -3.9640 hc        1 MOL      0.094935
    150 H70         8.0550    1.3270   -4.0140 hc        1 MOL      0.094935
    151 H71         8.5570   -0.3110   -4.4090 hc        1 MOL      0.094935
    152 N14         6.1740    0.5410   -1.0480 n         1 MOL     -0.098698
    153 C49         5.3450    1.4170   -0.1820 c3        1 MOL     -0.196925
    154 C50         5.7910    1.4960    1.2610 c         1 MOL      0.486135
    155 O20         5.3700    2.4420    1.8720 o         1 MOL     -0.563104
    156 C51         3.8530    0.8820   -0.1940 c3        1 MOL      0.058681
    157 C52         3.1320    0.9930   -1.5410 c3        1 MOL     -0.347969
    158 C53         1.9760    0.0710   -1.7460 c         1 MOL      0.821505
    159 O21         0.7750    0.3840   -1.5240 o         1 MOL     -0.728905
    160 O22         2.2770   -1.1200   -2.0570 o         1 MOL     -0.728905
    161 H72         5.8630   -0.3680   -1.3260 hn        1 MOL      0.104989
    162 H73         5.2460    2.4320   -0.5670 h1        1 MOL      0.139558
    163 H74         3.2170    1.4440    0.4850 hc        1 MOL      0.063655
    164 H75         3.9240   -0.1810    0.0480 hc        1 MOL      0.063655
    165 H76         3.7840    0.8560   -2.3980 hc        1 MOL      0.080588
    166 H77         2.8210    2.0370   -1.6150 hc        1 MOL      0.080588
    167 N15         6.7350    0.6680    1.7490 n         1 MOL     -0.073305
    168 C54         7.2270    0.7250    3.1060 c3        1 MOL     -0.231878
    169 H78         8.0250    1.4630    3.1720 h1        1 MOL      0.088430
    170 H79         6.4140    1.0080    3.7760 h1        1 MOL      0.088430
    171 H80         7.6110   -0.2530    3.3950 h1        1 MOL      0.088430
    172 H81         7.0920   -0.0250    1.1050 hn        1 MOL      0.188119
    173 Ca1        -1.6590   -0.4170   -1.7420 Ca        1 MOL      1.788422
    174 O23         0.1400   -2.6450   -1.9530 oh        1 MOL     -0.826135
    175 H82         0.9630   -2.1630   -1.9050 ho        1 MOL      0.401129
    176 H83         0.3990   -3.5650   -2.0010 ho        1 MOL      0.401129
    177 O24        -2.2550   -1.5680   -3.9980 oh        1 MOL     -0.826135
    178 H84        -3.1840   -1.6130   -4.2180 ho        1 MOL      0.401129
    179 H85        -1.8170   -1.9580   -4.7520 ho        1 MOL      0.401129
@<TRIPOS>BOND
     1    1    2 1   
     2    1    4 1   
     3    1    5 1   
     4    1    6 1   
     5    2    3 2   
     6    2    7 1   
     7    7    8 1   
     8    7   15 1   
     9    8    9 1   
    10    8   11 1   
    11    8   16 1   
    12    9   10 2   
    13    9   19 1   
    14   11   12 1   
    15   11   17 1   
    16   11   18 1   
    17   12   13 1   
    18   12   14 1   
    19   19   20 1   
    20   19   28 1   
    21   20   21 1   
    22   20   23 1   
    23   20   29 1   
    24   21   22 2   
    25   21   41 1   
    26   23   24 1   
    27   23   30 1   
    28   23   31 1   
    29   24   25 1   
    30   24   32 1   
    31   24   33 1   
    32   25   26 1   
    33   25   34 1   
    34   25   35 1   
    35   26   27 1   
    36   26   36 1   
    37   26   37 1   
    38   27   38 1   
    39   27   39 1   
    40   27   40 1   
    41   41   42 1   
    42   41   49 1   
    43   42   43 1   
    44   42   45 1   
    45   42   50 1   
    46   43   44 2   
    47   43   53 1   
    48   45   46 1   
    49   45   51 1   
    50   45   52 1   
    51   46   47 1   
    52   46   48 1   
    53   53   54 1   
    54   53   57 1   
    55   54   55 1   
    56   54   58 1   
    57   54   59 1   
    58   55   56 2   
    59   55   60 1   
    60   60   61 1   
    61   60   68 1   
    62   61   62 1   
    63   61   64 1   
    64   61   69 1   
    65   62   63 2   
    66   62   74 1   
    67   64   65 1   
    68   64   70 1   
    69   64   71 1   
    70   65   66 1   
    71   65   67 2   
    72   66   72 1   
    73   66   73 1   
    74   74   75 1   
    75   74   78 1   
    76   75   76 1   
    77   75   79 1   
    78   75   80 1   
    79   76   77 2   
    80   76   81 1   
    81   81   82 1   
    82   81   93 1   
    83   82   83 1   
    84   82   85 1   
    85   82   94 1   
    86   83   84 2   
    87   83  102 1   
    88   85   86 1   
    89   85   95 1   
    90   85   96 1   
    91   86   87 ar  
    92   86   88 ar  
    93   87   89 ar  
    94   87   97 1   
    95   88   90 ar  
    96   88   98 1   
    97   89   91 ar  
    98   89   99 1   
    99   90   91 ar  
   100   90  100 1   
   101   91   92 1   
   102   92  101 1   
   103  102  103 1   
   104  102  110 1   
   105  103  104 1   
   106  103  106 1   
   107  103  111 1   
   108  104  105 2   
   109  104  121 1   
   110  106  107 1   
   111  106  108 1   
   112  106  112 1   
   113  107  109 1   
   114  107  113 1   
   115  107  114 1   
   116  108  115 1   
   117  108  116 1   
   118  108  117 1   
   119  109  118 1   
   120  109  119 1   
   121  109  120 1   
   122  121  122 1   
   123  121  127 1   
   124  122  123 1   
   125  122  125 1   
   126  122  128 1   
   127  123  124 2   
   128  123  132 1   
   129  125  126 1   
   130  125  129 1   
   131  125  130 1   
   132  126  131 1   
   133  132  133 1   
   134  132  137 1   
   135  133  134 1   
   136  133  136 1   
   137  133  138 1   
   138  134  135 2   
   139  134  142 1   
   140  136  139 1   
   141  136  140 1   
   142  136  141 1   
   143  142  143 1   
   144  142  147 1   
   145  143  144 1   
   146  143  146 1   
   147  143  148 1   
   148  144  145 2   
   149  144  152 1   
   150  146  149 1   
   151  146  150 1   
   152  146  151 1   
   153  152  153 1   
   154  152  161 1   
   155  153  154 1   
   156  153  156 1   
   157  153  162 1   
   158  154  155 2   
   159  154  167 1   
   160  156  157 1   
   161  156  163 1   
   162  156  164 1   
   163  157  158 1   
   164  157  165 1   
   165  157  166 1   
   166  158  159 1   
   167  158  160 1   
   168  167  168 1   
   169  167  172 1   
   170  168  169 1   
   171  168  170 1   
   172  168  171 1   
   173  174  175 1   
   174  174  176 1   
   175  177  178 1   
   176  177  179 1   
@<TRIPOS>SUBSTRUCTURE
     1 MOL         1 TEMP              0 ****  ****    0 ROOT
