@<TRIPOS>MOLECULE
MOL
  189   185     1     0     0
SMALL
resp


@<TRIPOS>ATOM
      1 C1         -0.1660    4.0150   -3.9970 c3        1 MOL     -0.308899
      2 C2          0.6920    3.5050   -2.8420 c         1 MOL      0.707269
      3 O1          0.2500    3.5500   -1.7000 o         1 MOL     -0.641271
      4 H1         -1.1630    3.5800   -3.9280 hc        1 MOL      0.070651
      5 H2         -0.2400    5.1010   -3.9440 hc        1 MOL      0.070651
      6 H3          0.2910    3.7280   -4.9440 hc        1 MOL      0.070651
      7 N1          1.8690    2.9840   -3.1030 n         1 MOL     -0.740554
      8 C3          2.5410    2.2260   -2.0230 c3        1 MOL      0.368082
      9 C4          3.2850    3.1180   -1.0060 c         1 MOL      0.530507
     10 O2          4.5170    3.0910   -0.9300 o         1 MOL     -0.497230
     11 C5          3.4460    1.1100   -2.5790 c3        1 MOL     -0.412095
     12 C6          3.9960    0.1830   -1.4460 c         1 MOL      0.696826
     13 O3          3.2770    0.1280   -0.4300 o         1 MOL     -0.643838
     14 O4          4.8960   -0.6490   -1.6650 o         1 MOL     -0.643838
     15 H4          2.0240    2.7760   -4.0770 hn        1 MOL      0.368065
     16 H5          1.8440    1.6970   -1.3790 h1        1 MOL      0.082412
     17 H6          4.2610    1.5870   -3.1190 hc        1 MOL      0.088739
     18 H7          2.8670    0.4530   -3.2240 hc        1 MOL      0.088739
     19 N2          2.6750    4.1490   -0.4340 n         1 MOL     -0.448661
     20 C7          3.4340    5.1840    0.2500 c3        1 MOL     -0.048792
     21 C8          4.2270    4.6980    1.4460 c         1 MOL      0.539050
     22 O5          5.0920    5.4040    1.9010 o         1 MOL     -0.567482
     23 C9          2.4520    6.2980    0.7260 c3        1 MOL     -0.158966
     24 C10         1.8280    7.1140   -0.4560 c3        1 MOL      0.180307
     25 C11         0.7250    8.0690   -0.0430 c3        1 MOL     -0.054374
     26 C12         0.1670    8.8840   -1.2060 c3        1 MOL     -0.125810
     27 N3         -0.6490    8.1230   -2.0920 n4        1 MOL     -0.325052
     28 H8          1.6760    4.2410   -0.5290 hn        1 MOL      0.342755
     29 H9          4.1890    5.5950   -0.4220 h1        1 MOL      0.109499
     30 H10         2.9950    7.0250    1.3300 hc        1 MOL      0.051402
     31 H11         1.6320    5.8390    1.2730 hc        1 MOL      0.051402
     32 H12         1.3960    6.3910   -1.1450 hc        1 MOL     -0.034803
     33 H13         2.6520    7.5550   -1.0090 hc        1 MOL     -0.034803
     34 H14         1.0830    8.7910    0.6940 hc        1 MOL      0.065522
     35 H15        -0.0460    7.6680    0.6180 hc        1 MOL      0.065522
     36 H16         1.0430    9.2520   -1.7340 hx        1 MOL      0.114205
     37 H17        -0.4280    9.6840   -0.7720 hx        1 MOL      0.114205
     38 H18        -0.0480    7.5700   -2.6970 hn        1 MOL      0.334778
     39 H19        -1.3070    7.5960   -1.5470 hn        1 MOL      0.334778
     40 H20        -1.1320    8.7790   -2.6850 hn        1 MOL      0.334778
     41 N4          3.9690    3.4780    1.8580 n         1 MOL     -0.279576
     42 C13         4.6950    2.8810    2.9830 c3        1 MOL      0.014330
     43 C14         5.7670    1.8530    2.4790 c         1 MOL      0.387888
     44 O6          6.6950    1.5120    3.2030 o         1 MOL     -0.554710
     45 C15         3.7650    2.3780    4.1030 c3        1 MOL     -0.147155
     46 C16         2.5610    1.4920    3.7370 c         1 MOL      0.718758
     47 O7          1.7400    1.2390    4.6230 o         1 MOL     -0.703544
     48 O8          2.6450    0.8150    2.7180 o         1 MOL     -0.703544
     49 H21         3.2170    2.9990    1.3930 hn        1 MOL      0.201307
     50 H22         5.3950    3.6210    3.3810 h1        1 MOL      0.100877
     51 H23         3.4040    3.2460    4.6610 hc        1 MOL      0.040242
     52 H24         4.4050    1.8970    4.8370 hc        1 MOL      0.040242
     53 N5          5.7440    1.3880    1.2460 n         1 MOL      0.108751
     54 C17         6.8640    0.8810    0.4390 c3        1 MOL     -0.073400
     55 C18         7.2710   -0.5980    0.8150 c         1 MOL      0.474298
     56 O9          8.4460   -0.8360    1.0170 o         1 MOL     -0.570529
     57 H25         4.8820    1.6020    0.7450 hn        1 MOL     -0.091418
     58 H26         7.6420    1.6450    0.4840 h1        1 MOL      0.054480
     59 H27         6.4950    0.8340   -0.5840 h1        1 MOL      0.054480
     60 N6          6.2960   -1.3890    1.1740 n         1 MOL     -0.190282
     61 C19         6.4390   -2.8700    1.4040 c3        1 MOL     -0.022344
     62 C20         6.3500   -3.6970    0.1020 c         1 MOL      0.363258
     63 O10         6.4420   -4.9360    0.1930 o         1 MOL     -0.538812
     64 C21         5.3740   -3.2800    2.4420 c3        1 MOL     -0.046286
     65 C22         3.9590   -2.8400    2.1180 c         1 MOL      0.516893
     66 O11         3.1400   -2.3740    2.9120 o         1 MOL     -0.630678
     67 O12         3.6450   -2.8470    0.9260 o         1 MOL     -0.630678
     68 H28         5.3760   -1.0350    0.9770 hn        1 MOL      0.104748
     69 H29         7.3840   -3.2400    1.8180 h1        1 MOL      0.119658
     70 H30         5.6990   -2.8200    3.3760 hc        1 MOL      0.037798
     71 H31         5.4300   -4.3360    2.7310 hc        1 MOL      0.037798
     72 N7          6.0870   -3.1160   -1.0860 n         1 MOL     -0.162401
     73 C23         5.9830   -3.7530   -2.3820 c3        1 MOL     -0.107569
     74 C24         4.6230   -4.2710   -2.6370 c         1 MOL      0.477366
     75 O13         4.4940   -5.1800   -3.4860 o         1 MOL     -0.583614
     76 H32         6.1920   -2.1110   -1.0560 hn        1 MOL      0.212255
     77 H33         6.7680   -4.5130   -2.4890 h1        1 MOL      0.086590
     78 H34         6.2900   -3.0050   -3.1210 h1        1 MOL      0.086590
     79 N8          3.6430   -3.8530   -1.9120 n         1 MOL     -0.123511
     80 C25         2.2730   -4.3870   -1.9720 c3        1 MOL     -0.253635
     81 C26         1.2400   -3.2910   -1.7910 c         1 MOL      0.745253
     82 O14         1.4690   -2.3330   -1.0420 o         1 MOL     -0.651579
     83 C27         1.9910   -5.5520   -1.0240 c3        1 MOL      0.288166
     84 C28         3.0590   -6.6470   -1.1530 c3        1 MOL     -0.309825
     85 O15         2.1350   -4.9590    0.2700 oh        1 MOL     -0.582743
     86 H35         3.8810   -3.1380   -1.2390 hn        1 MOL      0.201600
     87 H36         2.0860   -4.8420   -2.9470 h1        1 MOL      0.082335
     88 H37         1.0090   -6.0410   -1.0330 h1        1 MOL      0.060969
     89 H38         2.9470   -4.4490    0.2270 ho        1 MOL      0.405269
     90 H39         4.0260   -6.3720   -0.7300 hc        1 MOL      0.087632
     91 H40         2.6410   -7.5380   -0.6750 hc        1 MOL      0.087632
     92 H41         3.1510   -7.0140   -2.1800 hc        1 MOL      0.087632
     93 N9          0.0960   -3.3970   -2.4770 n         1 MOL     -0.711059
     94 C29        -0.9490   -2.3040   -2.5740 c3        1 MOL      0.037604
     95 C30        -2.2140   -2.8790   -2.0090 c         1 MOL      0.602850
     96 O16        -2.6660   -3.8210   -2.5250 o         1 MOL     -0.566878
     97 C31        -1.1570   -1.8000   -4.0000 c3        1 MOL      0.142030
     98 C32         0.1010   -1.0620   -4.4120 c3        1 MOL      0.180387
     99 C33        -2.3360   -0.8520   -4.0570 c3        1 MOL     -0.133913
    100 C34         0.1110   -0.6680   -5.9310 c3        1 MOL     -0.403676
    101 H42         0.0530   -4.1740   -3.1130 hn        1 MOL      0.348886
    102 H43        -0.7330   -1.4620   -1.9080 h1        1 MOL      0.111705
    103 H44        -1.2960   -2.6220   -4.6990 hc        1 MOL      0.001518
    104 H45         0.9170   -1.7300   -4.1380 hc        1 MOL     -0.004142
    105 H46         0.1740   -0.1570   -3.8090 hc        1 MOL     -0.004142
    106 H47        -3.2270   -1.4840   -4.0590 hc        1 MOL      0.017330
    107 H48        -2.4210   -0.2150   -3.1720 hc        1 MOL      0.017330
    108 H49        -2.4390   -0.3080   -4.9960 hc        1 MOL      0.017330
    109 H50         1.1370   -0.3400   -6.0830 hc        1 MOL      0.093238
    110 H51        -0.1260   -1.5530   -6.5200 hc        1 MOL      0.093238
    111 H52        -0.6980    0.0260   -6.1510 hc        1 MOL      0.093238
    112 N10        -2.7510   -2.2330   -0.9420 n         1 MOL     -0.250812
    113 C35        -4.0540   -2.5310   -0.2960 c3        1 MOL     -0.069837
    114 C36        -5.2210   -1.8850   -1.0020 c         1 MOL      0.264413
    115 O17        -5.0220   -0.7940   -1.5520 o         1 MOL     -0.194021
    116 C37        -4.0380   -2.1780    1.2810 c3        1 MOL      0.015632
    117 C38        -3.0360   -2.9790    2.1290 c3        1 MOL     -0.449642
    118 O18        -3.7310   -0.8360    1.3640 oh        1 MOL     -0.268759
    119 H53        -2.1250   -1.5900   -0.4750 hn        1 MOL      0.171443
    120 H54        -4.0880   -3.6190   -0.3500 h1        1 MOL      0.077837
    121 H55        -5.0720   -2.2800    1.6230 h1        1 MOL      0.108701
    122 H56        -2.7720   -0.7400    1.3610 ho        1 MOL      0.276925
    123 H57        -2.0560   -2.7860    1.6790 hc        1 MOL      0.142733
    124 H58        -3.0570   -2.6050    3.1540 hc        1 MOL      0.142733
    125 H59        -3.3750   -4.0080    2.0940 hc        1 MOL      0.142733
    126 N11        -6.4150   -2.3810   -0.7050 n         1 MOL     -0.238740
    127 C39        -7.5980   -1.5410   -0.7990 c3        1 MOL     -0.251658
    128 C40        -7.5770   -0.1460   -0.1390 c         1 MOL      0.301271
    129 O19        -8.0090    0.8550   -0.7210 o         1 MOL     -0.462180
    130 C41        -8.8190   -2.2370   -0.2620 c3        1 MOL      0.371146
    131 C42        -9.2920   -3.2490   -1.3690 c3        1 MOL     -0.344192
    132 O20        -8.5450   -2.9220    0.8900 oh        1 MOL     -0.608419
    133 H60        -6.4720   -3.2650   -0.2110 hn        1 MOL      0.280599
    134 H61        -7.7020   -1.4050   -1.8770 h1        1 MOL      0.171636
    135 H62        -9.6600   -1.5530   -0.1030 h1        1 MOL      0.044250
    136 H63        -9.3790   -3.1420    1.3020 ho        1 MOL      0.394706
    137 H64       -10.1210   -3.7790   -0.9060 hc        1 MOL      0.092904
    138 H65        -9.7530   -2.6860   -2.1810 hc        1 MOL      0.092904
    139 H66        -8.4960   -3.9460   -1.6130 hc        1 MOL      0.092904
    140 N12        -6.9410    0.0790    1.0000 n         1 MOL     -0.112034
    141 C43        -6.6590    1.3410    1.7230 c3        1 MOL     -0.038188
    142 C44        -5.8810    2.3570    0.8960 c         1 MOL      0.345746
    143 O21        -6.2540    3.5270    0.8030 o         1 MOL     -0.494727
    144 C45        -6.0140    0.9990    3.0870 c3        1 MOL      0.108257
    145 C46        -6.6480   -0.2400    3.7560 c3        1 MOL      0.005199
    146 C47        -5.9920   -0.5930    5.0640 c3        1 MOL      0.160469
    147 C48        -6.6110   -1.8560    5.7170 c3        1 MOL     -0.094713
    148 N13        -5.7330   -2.4620    6.7270 n4        1 MOL     -0.265002
    149 H67        -6.4920   -0.7440    1.3650 hn        1 MOL      0.067528
    150 H68        -7.6280    1.7810    1.9910 h1        1 MOL      0.099207
    151 H69        -6.1040    1.9150    3.6710 hc        1 MOL     -0.022528
    152 H70        -4.9560    0.7450    3.0050 hc        1 MOL     -0.022528
    153 H71        -6.5830   -1.0640    3.0470 hc        1 MOL     -0.024163
    154 H72        -7.7040   -0.0720    3.9590 hc        1 MOL     -0.024163
    155 H73        -6.0260    0.2640    5.7310 hc        1 MOL     -0.013876
    156 H74        -4.9290   -0.7890    4.8810 hc        1 MOL     -0.013876
    157 H75        -6.7670   -2.6680    5.0070 hx        1 MOL      0.111700
    158 H76        -7.5330   -1.5600    6.2110 hx        1 MOL      0.111700
    159 H77        -6.1180   -3.2980    7.1330 hn        1 MOL      0.308969
    160 H78        -4.8920   -2.5930    6.1730 hn        1 MOL      0.308969
    161 H79        -5.4430   -1.8920    7.5050 hn        1 MOL      0.308969
    162 N14        -4.7720    1.9320    0.2820 n         1 MOL      0.102801
    163 C49        -3.9450    2.6600   -0.6220 c3        1 MOL     -0.402564
    164 C50        -4.6930    2.8720   -1.9060 c         1 MOL      0.561389
    165 O22        -4.7980    3.9870   -2.4270 o         1 MOL     -0.591834
    166 C51        -2.6490    1.8670   -0.8010 c3        1 MOL      0.294130
    167 C52        -1.7660    1.8220    0.4740 c3        1 MOL     -0.047540
    168 C53        -0.6670    0.7870    0.5050 c         1 MOL      0.700580
    169 O23         0.5110    1.0780    0.6250 o         1 MOL     -0.769405
    170 O24        -0.9870   -0.4140    0.4780 o         1 MOL     -0.769405
    171 H80        -4.5410    0.9580    0.4270 hn        1 MOL      0.035700
    172 H81        -3.7310    3.6370   -0.1870 h1        1 MOL      0.127415
    173 H82        -2.1330    2.2730   -1.6590 hc        1 MOL     -0.032263
    174 H83        -2.9480    0.8710   -1.1490 hc        1 MOL     -0.032263
    175 H84        -2.5240    1.5990    1.2250 hc        1 MOL     -0.028659
    176 H85        -1.4140    2.8400    0.6390 hc        1 MOL     -0.028659
    177 N15        -5.2430    1.8400   -2.5460 n         1 MOL      0.005307
    178 C54        -5.9410    1.9270   -3.7770 c3        1 MOL     -0.341466
    179 H86        -6.8200    2.5590   -3.6530 h1        1 MOL      0.117089
    180 H87        -5.2880    2.3600   -4.5360 h1        1 MOL      0.117089
    181 H88        -6.2510    0.9300   -4.0900 h1        1 MOL      0.117089
    182 H89        -5.0090    0.9390   -2.1380 hn        1 MOL     -0.017338
    183 Ca1         1.6260   -1.0520    1.3300 Ca        1 MOL      1.816666
    184 O25         0.4680   -0.9510    3.6970 oh        1 MOL     -0.839452
    185 H90         1.0300   -0.3110    4.1290 ho        1 MOL      0.383115
    186 H91        -0.3710   -0.4870    3.5870 ho        1 MOL      0.383115
    187 O26         0.3690   -3.3530    1.6070 oh        1 MOL     -0.839452
    188 H92         0.9370   -3.7960    0.9740 ho        1 MOL      0.383115
    189 H93        -0.0700   -4.0630    2.0810 ho        1 MOL      0.383115
@<TRIPOS>BOND
     1    1    2 1   
     2    1    4 1   
     3    1    5 1   
     4    1    6 1   
     5    2    3 2   
     6    2    7 1   
     7    7    8 1   
     8    7   15 1   
     9    8    9 1   
    10    8   11 1   
    11    8   16 1   
    12    9   10 2   
    13    9   19 1   
    14   11   12 1   
    15   11   17 1   
    16   11   18 1   
    17   12   13 1   
    18   12   14 1   
    19   19   20 1   
    20   19   28 1   
    21   20   21 1   
    22   20   23 1   
    23   20   29 1   
    24   21   22 2   
    25   21   41 1   
    26   23   24 1   
    27   23   30 1   
    28   23   31 1   
    29   24   25 1   
    30   24   32 1   
    31   24   33 1   
    32   25   26 1   
    33   25   34 1   
    34   25   35 1   
    35   26   27 1   
    36   26   36 1   
    37   26   37 1   
    38   27   38 1   
    39   27   39 1   
    40   27   40 1   
    41   41   42 1   
    42   41   49 1   
    43   42   43 1   
    44   42   45 1   
    45   42   50 1   
    46   43   44 2   
    47   43   53 1   
    48   45   46 1   
    49   45   51 1   
    50   45   52 1   
    51   46   47 1   
    52   46   48 1   
    53   53   54 1   
    54   53   57 1   
    55   54   55 1   
    56   54   58 1   
    57   54   59 1   
    58   55   56 2   
    59   55   60 1   
    60   60   61 1   
    61   60   68 1   
    62   61   62 1   
    63   61   64 1   
    64   61   69 1   
    65   62   63 2   
    66   62   72 1   
    67   64   65 1   
    68   64   70 1   
    69   64   71 1   
    70   65   66 1   
    71   65   67 1   
    72   72   73 1   
    73   72   76 1   
    74   73   74 1   
    75   73   77 1   
    76   73   78 1   
    77   74   75 2   
    78   74   79 1   
    79   79   80 1   
    80   79   86 1   
    81   80   81 1   
    82   80   83 1   
    83   80   87 1   
    84   81   82 2   
    85   81   93 1   
    86   83   84 1   
    87   83   85 1   
    88   83   88 1   
    89   84   90 1   
    90   84   91 1   
    91   84   92 1   
    92   85   89 1   
    93   93   94 1   
    94   93  101 1   
    95   94   95 1   
    96   94   97 1   
    97   94  102 1   
    98   95   96 2   
    99   95  112 1   
   100   97   98 1   
   101   97   99 1   
   102   97  103 1   
   103   98  100 1   
   104   98  104 1   
   105   98  105 1   
   106   99  106 1   
   107   99  107 1   
   108   99  108 1   
   109  100  109 1   
   110  100  110 1   
   111  100  111 1   
   112  112  113 1   
   113  112  119 1   
   114  113  114 1   
   115  113  116 1   
   116  113  120 1   
   117  114  115 2   
   118  114  126 1   
   119  116  117 1   
   120  116  118 1   
   121  116  121 1   
   122  117  123 1   
   123  117  124 1   
   124  117  125 1   
   125  118  122 1   
   126  126  127 1   
   127  126  133 1   
   128  127  128 1   
   129  127  130 1   
   130  127  134 1   
   131  128  129 2   
   132  128  140 1   
   133  130  131 1   
   134  130  132 1   
   135  130  135 1   
   136  131  137 1   
   137  131  138 1   
   138  131  139 1   
   139  132  136 1   
   140  140  141 1   
   141  140  149 1   
   142  141  142 1   
   143  141  144 1   
   144  141  150 1   
   145  142  143 2   
   146  142  162 1   
   147  144  145 1   
   148  144  151 1   
   149  144  152 1   
   150  145  146 1   
   151  145  153 1   
   152  145  154 1   
   153  146  147 1   
   154  146  155 1   
   155  146  156 1   
   156  147  148 1   
   157  147  157 1   
   158  147  158 1   
   159  148  159 1   
   160  148  160 1   
   161  148  161 1   
   162  162  163 1   
   163  162  171 1   
   164  163  164 1   
   165  163  166 1   
   166  163  172 1   
   167  164  165 2   
   168  164  177 1   
   169  166  167 1   
   170  166  173 1   
   171  166  174 1   
   172  167  168 1   
   173  167  175 1   
   174  167  176 1   
   175  168  169 1   
   176  168  170 1   
   177  177  178 1   
   178  177  182 1   
   179  178  179 1   
   180  178  180 1   
   181  178  181 1   
   182  184  185 1   
   183  184  186 1   
   184  187  188 1   
   185  187  189 1   
@<TRIPOS>SUBSTRUCTURE
     1 MOL         1 TEMP              0 ****  ****    0 ROOT
