@<TRIPOS>MOLECULE
MOL
  189   185     1     0     0
SMALL
resp


@<TRIPOS>ATOM
      1 C1          0.0400    2.2750    6.0840 c3        1 MOL     -0.243155
      2 C2         -0.2510    1.7260    4.6580 c         1 MOL      0.712122
      3 O1          0.4760    2.1040    3.7540 o         1 MOL     -0.609724
      4 H1         -0.8820    2.2810    6.6650 hc        1 MOL      0.064441
      5 H2          0.7750    1.6380    6.5760 hc        1 MOL      0.064441
      6 H3          0.4290    3.2910    6.0100 hc        1 MOL      0.064441
      7 N1         -1.4270    1.0860    4.4200 n         1 MOL     -0.595957
      8 C3         -2.0490    1.1850    3.1220 c3        1 MOL      0.229675
      9 C4         -2.7140    2.5940    2.8540 c         1 MOL      0.437710
     10 O2         -3.6120    3.0320    3.5410 o         1 MOL     -0.542398
     11 C5         -3.1850    0.1310    2.9360 c3        1 MOL     -0.410861
     12 C6         -4.1430    0.3230    1.6840 c         1 MOL      0.769021
     13 O3         -3.6690    0.7350    0.6030 o         1 MOL     -0.643193
     14 O4         -5.3100    0.0640    1.9410 o         1 MOL     -0.643193
     15 H4         -2.0100    0.9270    5.2260 hn        1 MOL      0.326762
     16 H5         -1.3970    0.8790    2.2970 h1        1 MOL     -0.010512
     17 H6         -3.8840   -0.0040    3.7680 hc        1 MOL      0.094343
     18 H7         -2.6950   -0.8420    2.8990 hc        1 MOL      0.094343
     19 N2         -2.3720    3.2600    1.7330 n         1 MOL     -0.141773
     20 C7         -2.8690    4.6010    1.4220 c3        1 MOL      0.176047
     21 C8         -3.9770    4.7590    0.3230 c         1 MOL      0.467666
     22 O5         -4.4090    5.8900   -0.0400 o         1 MOL     -0.547405
     23 C9         -1.7180    5.5620    1.1770 c3        1 MOL     -0.017094
     24 C10        -0.8280    5.1870   -0.0470 c3        1 MOL     -0.014873
     25 C11         0.1420    6.3940   -0.3480 c3        1 MOL      0.020660
     26 C12         1.4670    6.2770   -1.1650 c3        1 MOL     -0.163152
     27 N3          2.0050    4.8730   -1.0900 n4        1 MOL     -0.094081
     28 H8         -1.7620    2.8340    1.0420 hn        1 MOL      0.037871
     29 H9         -3.4340    5.0910    2.2160 h1        1 MOL      0.038789
     30 H10        -1.0850    5.5100    2.0600 hc        1 MOL     -0.014195
     31 H11        -2.1510    6.5540    1.0460 hc        1 MOL     -0.014195
     32 H12        -1.4510    5.0060   -0.9350 hc        1 MOL      0.057494
     33 H13        -0.2250    4.3080    0.1730 hc        1 MOL      0.057494
     34 H14         0.6310    6.6610    0.5960 hc        1 MOL      0.045321
     35 H15        -0.3350    7.3350   -0.6310 hc        1 MOL      0.045321
     36 H16         2.1400    7.1060   -0.9660 hx        1 MOL      0.114946
     37 H17         1.1140    6.4230   -2.1870 hx        1 MOL      0.114946
     38 H18         1.3200    4.2350   -1.4670 hn        1 MOL      0.247205
     39 H19         2.8990    4.7750   -1.5580 hn        1 MOL      0.247205
     40 H20         2.1840    4.4940   -0.1770 hn        1 MOL      0.247205
     41 N4         -4.3810    3.6220   -0.1770 n         1 MOL     -0.330605
     42 C13        -5.3770    3.6210   -1.2430 c3        1 MOL     -0.093432
     43 C14        -6.6750    2.8770   -0.9830 c         1 MOL      0.554714
     44 O6         -7.5430    2.9620   -1.7900 o         1 MOL     -0.531960
     45 C15        -4.7200    3.1130   -2.5180 c3        1 MOL      0.164111
     46 C16        -3.2020    3.3830   -2.6280 c         1 MOL      0.528814
     47 O7         -2.7980    4.4590   -3.0670 o         1 MOL     -0.610590
     48 O8         -2.3850    2.5450   -2.2250 o         1 MOL     -0.610590
     49 H21        -4.1740    2.7170    0.2100 hn        1 MOL      0.092421
     50 H22        -5.7480    4.6120   -1.4690 h1        1 MOL      0.121305
     51 H23        -5.2350    3.5970   -3.3370 hc        1 MOL     -0.034469
     52 H24        -4.9370    2.0500   -2.6260 hc        1 MOL     -0.034469
     53 N5         -6.8650    2.1380    0.1420 n         1 MOL     -0.440298
     54 C17        -8.0530    1.3820    0.3780 c3        1 MOL     -0.058086
     55 C18        -8.2280    0.0980   -0.4900 c         1 MOL      0.439063
     56 O9         -9.3490   -0.3270   -0.5660 o         1 MOL     -0.539656
     57 H25        -6.0860    1.9350    0.7540 hn        1 MOL      0.312463
     58 H26        -8.9430    2.0220    0.3760 h1        1 MOL      0.090017
     59 H27        -7.9600    1.0760    1.4180 h1        1 MOL      0.090017
     60 N6         -7.1540   -0.4370   -1.1120 n         1 MOL     -0.184853
     61 C19        -7.2210   -1.6860   -1.9100 c3        1 MOL     -0.097888
     62 C20        -7.1090   -3.0040   -1.1920 c         1 MOL      0.441344
     63 O10        -7.3040   -4.0410   -1.7770 o         1 MOL     -0.519158
     64 C21        -6.0730   -1.5200   -2.9310 c3        1 MOL     -0.248078
     65 C22        -4.7270   -0.9110   -2.3960 c         1 MOL      0.683726
     66 O11        -4.0070   -0.2140   -3.1390 o         1 MOL     -0.765718
     67 O12        -4.2150   -1.2270   -1.2990 o         1 MOL     -0.765718
     68 H28        -6.2390   -0.1190   -0.8320 hn        1 MOL      0.224195
     69 H29        -8.1490   -1.7070   -2.4950 h1        1 MOL      0.136880
     70 H30        -6.5730   -0.9210   -3.6900 hc        1 MOL      0.111593
     71 H31        -5.7860   -2.4900   -3.3250 hc        1 MOL      0.111593
     72 N7         -6.6010   -2.9650    0.0440 n         1 MOL     -0.212180
     73 C23        -6.4980   -4.2140    0.8510 c3        1 MOL     -0.153656
     74 C24        -5.0420   -4.7920    0.6590 c         1 MOL      0.448471
     75 O13        -4.8280   -6.0570    0.7860 o         1 MOL     -0.527495
     76 H32        -6.3410   -2.0910    0.4900 hn        1 MOL      0.206709
     77 H33        -7.2550   -4.9530    0.5730 h1        1 MOL      0.113538
     78 H34        -6.6000   -3.9260    1.8880 h1        1 MOL      0.113538
     79 N8         -4.1010   -3.8970    0.2790 n         1 MOL     -0.292701
     80 C25        -2.7090   -4.1860   -0.1660 c3        1 MOL     -0.146033
     81 C26        -1.6260   -3.2460    0.3250 c         1 MOL      0.620450
     82 O14        -1.8430   -2.0670    0.2530 o         1 MOL     -0.613934
     83 C27        -2.6620   -4.5310   -1.6530 c3        1 MOL      0.439314
     84 C28        -3.4170   -5.7820   -1.9930 c3        1 MOL     -0.770054
     85 O15        -3.3410   -3.5840   -2.4210 oh        1 MOL     -0.547979
     86 H35        -4.3700   -2.9300    0.4230 hn        1 MOL      0.280046
     87 H36        -2.3840   -5.1170    0.3100 h1        1 MOL      0.070416
     88 H37        -1.6280   -4.6130   -1.9870 h1        1 MOL     -0.018945
     89 H38        -3.3300   -2.7900   -1.8760 ho        1 MOL      0.415288
     90 H39        -3.3250   -6.0910   -3.0380 hc        1 MOL      0.210941
     91 H40        -3.2880   -6.6100   -1.2940 hc        1 MOL      0.210941
     92 H41        -4.4940   -5.6570   -1.8720 hc        1 MOL      0.210941
     93 N9         -0.4270   -3.8280    0.6090 n         1 MOL     -0.640430
     94 C29         0.7590   -3.2140    1.1520 c3        1 MOL      0.046330
     95 C30         1.9460   -3.6130    0.2550 c         1 MOL      0.450651
     96 O16         2.1990   -4.8150    0.1450 o         1 MOL     -0.522030
     97 C31         0.9190   -3.5380    2.6440 c3        1 MOL      0.080570
     98 C32        -0.1160   -2.6940    3.3540 c3        1 MOL      0.170798
     99 C33         2.3780   -3.1430    3.0960 c3        1 MOL     -0.348874
    100 C34        -0.2640   -3.0860    4.8110 c3        1 MOL     -0.456834
    101 H42        -0.4610   -4.8310    0.6500 hn        1 MOL      0.341019
    102 H43         0.7110   -2.1280    1.0390 h1        1 MOL      0.130695
    103 H44         0.7380   -4.6020    2.8030 hc        1 MOL      0.037653
    104 H45        -1.1020   -2.8180    2.8960 hc        1 MOL      0.031003
    105 H46         0.1770   -1.6530    3.2380 hc        1 MOL      0.031003
    106 H47         2.6400   -2.0820    3.1250 hc        1 MOL      0.069619
    107 H48         2.5060   -3.4460    4.1320 hc        1 MOL      0.069619
    108 H49         3.0870   -3.7690    2.5530 hc        1 MOL      0.069619
    109 H50        -0.2260   -4.1660    4.8850 hc        1 MOL      0.108722
    110 H51         0.6510   -2.6600    5.2280 hc        1 MOL      0.108722
    111 H52        -1.1560   -2.6580    5.2570 hc        1 MOL      0.108722
    112 N10         2.5810   -2.5940   -0.3710 n         1 MOL     -0.127222
    113 C35         3.7820   -2.7650   -1.2280 c3        1 MOL     -0.093430
    114 C36         5.1120   -2.6030   -0.4900 c         1 MOL      0.417105
    115 O17         5.0970   -2.2410    0.6870 o         1 MOL     -0.347333
    116 C37         3.7290   -1.6720   -2.3560 c3        1 MOL      0.422840
    117 C38         2.7520   -1.7430   -3.5300 c3        1 MOL     -0.783272
    118 O18         3.5830   -0.3960   -1.7700 oh        1 MOL     -0.691419
    119 H53         2.2460   -1.6640   -0.1950 hn        1 MOL      0.181139
    120 H54         3.8640   -3.7190   -1.7520 h1        1 MOL      0.072557
    121 H55         4.6960   -1.6900   -2.8380 h1        1 MOL     -0.029652
    122 H56         2.6870   -0.3230   -1.4130 ho        1 MOL      0.482351
    123 H57         2.7850   -0.8390   -4.1360 hc        1 MOL      0.200005
    124 H58         2.9520   -2.6470   -4.1150 hc        1 MOL      0.200005
    125 H59         1.7760   -1.9570   -3.0960 hc        1 MOL      0.200005
    126 N11         6.3220   -2.7060   -1.0350 n         1 MOL     -0.343567
    127 C39         7.6630   -2.3600   -0.3420 c3        1 MOL     -0.260371
    128 C40         7.8090   -0.9730    0.3530 c         1 MOL      0.341482
    129 O19         8.1370   -0.8620    1.5090 o         1 MOL     -0.420900
    130 C41         8.8810   -2.4300   -1.3360 c3        1 MOL      0.336494
    131 C42         9.1840   -3.7880   -1.9800 c3        1 MOL     -0.541590
    132 O20         8.6920   -1.4990   -2.4280 oh        1 MOL     -0.614272
    133 H60         6.4150   -2.7380   -2.0390 hn        1 MOL      0.267587
    134 H61         7.6770   -3.1170    0.4380 h1        1 MOL      0.196559
    135 H62         9.7000   -2.1120   -0.6930 h1        1 MOL      0.069998
    136 H63         9.3930   -0.8540   -2.5490 ho        1 MOL      0.322623
    137 H64         9.7990   -4.4360   -1.3580 hc        1 MOL      0.165304
    138 H65         8.2660   -4.2700   -2.3200 hc        1 MOL      0.165304
    139 H66         9.9280   -3.6430   -2.7590 hc        1 MOL      0.165304
    140 N12         7.4300    0.1540   -0.3190 n         1 MOL     -0.190814
    141 C43         7.3450    1.5220    0.2080 c3        1 MOL      0.005348
    142 C44         6.3500    1.6890    1.3550 c         1 MOL      0.322095
    143 O21         6.6950    2.2470    2.4220 o         1 MOL     -0.463411
    144 C45         7.1060    2.5600   -0.9490 c3        1 MOL     -0.236948
    145 C46         8.3170    2.6000   -1.8820 c3        1 MOL      0.453121
    146 C47         7.9890    3.4100   -3.1610 c3        1 MOL     -0.231451
    147 C48         8.9100    3.1000   -4.3920 c3        1 MOL     -0.121203
    148 N13         9.0190    1.6640   -4.7170 n4        1 MOL     -0.239049
    149 H67         7.3170   -0.0020   -1.3050 hn        1 MOL      0.238968
    150 H68         8.3270    1.7770    0.6050 h1        1 MOL      0.070787
    151 H69         6.8960    3.5550   -0.5720 hc        1 MOL      0.030956
    152 H70         6.2110    2.1730   -1.4340 hc        1 MOL      0.030956
    153 H71         8.6060    1.5800   -2.1300 hc        1 MOL     -0.092697
    154 H72         9.1780    3.0570   -1.3990 hc        1 MOL     -0.092697
    155 H73         8.0280    4.4520   -2.8450 hc        1 MOL      0.105512
    156 H74         6.9950    3.0690   -3.4530 hc        1 MOL      0.105512
    157 H75         9.9500    3.4090   -4.2970 hx        1 MOL      0.137160
    158 H76         8.5230    3.5920   -5.2780 hx        1 MOL      0.137160
    159 H77         9.6450    1.3260   -3.9990 hn        1 MOL      0.263377
    160 H78         8.1980    1.0820   -4.6680 hn        1 MOL      0.263377
    161 H79         9.3770    1.4280   -5.6320 hn        1 MOL      0.263377
    162 N14         5.1530    1.1300    1.1590 n         1 MOL     -0.048331
    163 C49         4.1050    1.1280    2.1700 c3        1 MOL     -0.221387
    164 C50         4.6610    0.3290    3.3960 c         1 MOL      0.484988
    165 O22         4.4500    0.7210    4.5230 o         1 MOL     -0.534251
    166 C51         2.7510    0.5420    1.6000 c3        1 MOL      0.444547
    167 C52         2.0060    1.5450    0.6910 c3        1 MOL     -0.489041
    168 C53         0.8830    0.7960   -0.0540 c         1 MOL      0.779539
    169 O23        -0.3150    1.1990    0.1190 o         1 MOL     -0.706302
    170 O24         1.2180   -0.1280   -0.8080 o         1 MOL     -0.706302
    171 H80         5.0210    0.5760    0.3260 hn        1 MOL      0.163728
    172 H81         3.8150    2.0950    2.5780 h1        1 MOL      0.120485
    173 H82         2.1190    0.2970    2.4560 hc        1 MOL     -0.051215
    174 H83         2.9540   -0.3990    1.0830 hc        1 MOL     -0.051215
    175 H84         2.8050    1.9070    0.0440 hc        1 MOL      0.043988
    176 H85         1.5340    2.3580    1.2380 hc        1 MOL      0.043988
    177 N15         5.3470   -0.8100    3.2190 n         1 MOL     -0.074946
    178 C54         5.9520   -1.6590    4.2890 c3        1 MOL     -0.368863
    179 H86         5.9320   -1.1180    5.2360 h1        1 MOL      0.135168
    180 H87         5.3830   -2.5830    4.3870 h1        1 MOL      0.135168
    181 H88         6.9840   -1.8940    4.0270 h1        1 MOL      0.135168
    182 H89         5.5990   -0.9860    2.2580 hn        1 MOL      0.104841
    183 Ca1        -2.1260    0.1510   -1.3560 Ca        1 MOL      1.740531
    184 O25        -0.4800    0.5850   -3.4000 oh        1 MOL     -0.834059
    185 H90        -0.8680    0.2160   -4.2040 ho        1 MOL      0.406044
    186 H91         0.2090    1.1680   -3.7120 ho        1 MOL      0.406044
    187 O26        -1.1540   -1.9600   -2.8230 oh        1 MOL     -0.834059
    188 H92        -0.4380   -1.4330   -3.1620 ho        1 MOL      0.406044
    189 H93        -1.3710   -2.5600   -3.5320 ho        1 MOL      0.406044
@<TRIPOS>BOND
     1    1    2 1   
     2    1    4 1   
     3    1    5 1   
     4    1    6 1   
     5    2    3 2   
     6    2    7 1   
     7    7    8 1   
     8    7   15 1   
     9    8    9 1   
    10    8   11 1   
    11    8   16 1   
    12    9   10 2   
    13    9   19 1   
    14   11   12 1   
    15   11   17 1   
    16   11   18 1   
    17   12   13 1   
    18   12   14 1   
    19   19   20 1   
    20   19   28 1   
    21   20   21 1   
    22   20   23 1   
    23   20   29 1   
    24   21   22 2   
    25   21   41 1   
    26   23   24 1   
    27   23   30 1   
    28   23   31 1   
    29   24   25 1   
    30   24   32 1   
    31   24   33 1   
    32   25   26 1   
    33   25   34 1   
    34   25   35 1   
    35   26   27 1   
    36   26   36 1   
    37   26   37 1   
    38   27   38 1   
    39   27   39 1   
    40   27   40 1   
    41   41   42 1   
    42   41   49 1   
    43   42   43 1   
    44   42   45 1   
    45   42   50 1   
    46   43   44 2   
    47   43   53 1   
    48   45   46 1   
    49   45   51 1   
    50   45   52 1   
    51   46   47 1   
    52   46   48 1   
    53   53   54 1   
    54   53   57 1   
    55   54   55 1   
    56   54   58 1   
    57   54   59 1   
    58   55   56 2   
    59   55   60 1   
    60   60   61 1   
    61   60   68 1   
    62   61   62 1   
    63   61   64 1   
    64   61   69 1   
    65   62   63 2   
    66   62   72 1   
    67   64   65 1   
    68   64   70 1   
    69   64   71 1   
    70   65   66 1   
    71   65   67 1   
    72   72   73 1   
    73   72   76 1   
    74   73   74 1   
    75   73   77 1   
    76   73   78 1   
    77   74   75 2   
    78   74   79 1   
    79   79   80 1   
    80   79   86 1   
    81   80   81 1   
    82   80   83 1   
    83   80   87 1   
    84   81   82 2   
    85   81   93 1   
    86   83   84 1   
    87   83   85 1   
    88   83   88 1   
    89   84   90 1   
    90   84   91 1   
    91   84   92 1   
    92   85   89 1   
    93   93   94 1   
    94   93  101 1   
    95   94   95 1   
    96   94   97 1   
    97   94  102 1   
    98   95   96 2   
    99   95  112 1   
   100   97   98 1   
   101   97   99 1   
   102   97  103 1   
   103   98  100 1   
   104   98  104 1   
   105   98  105 1   
   106   99  106 1   
   107   99  107 1   
   108   99  108 1   
   109  100  109 1   
   110  100  110 1   
   111  100  111 1   
   112  112  113 1   
   113  112  119 1   
   114  113  114 1   
   115  113  116 1   
   116  113  120 1   
   117  114  115 2   
   118  114  126 1   
   119  116  117 1   
   120  116  118 1   
   121  116  121 1   
   122  117  123 1   
   123  117  124 1   
   124  117  125 1   
   125  118  122 1   
   126  126  127 1   
   127  126  133 1   
   128  127  128 1   
   129  127  130 1   
   130  127  134 1   
   131  128  129 2   
   132  128  140 1   
   133  130  131 1   
   134  130  132 1   
   135  130  135 1   
   136  131  137 1   
   137  131  138 1   
   138  131  139 1   
   139  132  136 1   
   140  140  141 1   
   141  140  149 1   
   142  141  142 1   
   143  141  144 1   
   144  141  150 1   
   145  142  143 2   
   146  142  162 1   
   147  144  145 1   
   148  144  151 1   
   149  144  152 1   
   150  145  146 1   
   151  145  153 1   
   152  145  154 1   
   153  146  147 1   
   154  146  155 1   
   155  146  156 1   
   156  147  148 1   
   157  147  157 1   
   158  147  158 1   
   159  148  159 1   
   160  148  160 1   
   161  148  161 1   
   162  162  163 1   
   163  162  171 1   
   164  163  164 1   
   165  163  166 1   
   166  163  172 1   
   167  164  165 2   
   168  164  177 1   
   169  166  167 1   
   170  166  173 1   
   171  166  174 1   
   172  167  168 1   
   173  167  175 1   
   174  167  176 1   
   175  168  169 1   
   176  168  170 1   
   177  177  178 1   
   178  177  182 1   
   179  178  179 1   
   180  178  180 1   
   181  178  181 1   
   182  184  185 1   
   183  184  186 1   
   184  187  188 1   
   185  187  189 1   
@<TRIPOS>SUBSTRUCTURE
     1 MOL         1 TEMP              0 ****  ****    0 ROOT
