@<TRIPOS>MOLECULE
MOL
  179   176     1     0     0
SMALL
resp


@<TRIPOS>ATOM
      1 C1         -0.7520   -3.2190    6.4130 c3        1 MOL     -0.287521
      2 C2         -0.5570   -2.8140    4.9420 c         1 MOL      0.684469
      3 O1         -1.4480   -3.1110    4.0880 o         1 MOL     -0.581635
      4 H1         -0.4910   -4.2700    6.5380 hc        1 MOL      0.080021
      5 H2         -0.1090   -2.6080    7.0470 hc        1 MOL      0.080021
      6 H3         -1.7930   -3.0680    6.6970 hc        1 MOL      0.080021
      7 N1          0.6270   -2.3580    4.4660 n         1 MOL     -0.489124
      8 C3          0.9270   -2.1890    3.0280 c3        1 MOL     -0.120588
      9 C4          1.1770   -3.5310    2.4050 c         1 MOL      0.629889
     10 O2          2.0660   -4.3120    2.7530 o         1 MOL     -0.551015
     11 C5          2.1780   -1.2950    3.0110 c3        1 MOL     -0.130480
     12 C6          2.5860   -0.8060    1.6210 c         1 MOL      0.704034
     13 O3          3.5550   -0.0390    1.5210 o         1 MOL     -0.703764
     14 O4          1.9730   -1.2020    0.5940 o         1 MOL     -0.703764
     15 H4          1.3690   -2.1350    5.1150 hn        1 MOL      0.301343
     16 H5          0.0920   -1.7400    2.5050 h1        1 MOL      0.036599
     17 H6          3.0280   -1.8150    3.4370 hc        1 MOL      0.058467
     18 H7          2.0190   -0.5330    3.7810 hc        1 MOL      0.058467
     19 N2          0.3360   -3.9070    1.4120 n         1 MOL     -0.196541
     20 C7          0.2710   -5.2900    0.8790 c3        1 MOL     -0.097901
     21 C8          1.5340   -5.7270    0.1190 c         1 MOL      0.429521
     22 O5          1.8640   -6.9350    0.1370 o         1 MOL     -0.574260
     23 C9         -0.9740   -5.5180    0.0020 c3        1 MOL     -0.153417
     24 C10        -0.9340   -4.9550   -1.4270 c3        1 MOL      0.197077
     25 C11        -2.1500   -5.4480   -2.2280 c3        1 MOL      0.016775
     26 C12        -2.3390   -4.6370   -3.4790 c3        1 MOL      0.134215
     27 N3         -3.6790   -4.9380   -4.0890 n4        1 MOL     -0.423197
     28 H8         -0.2420   -3.1970    0.9950 hn        1 MOL      0.179690
     29 H9          0.1730   -5.9170    1.7570 h1        1 MOL      0.123829
     30 H10        -1.9300   -5.2090    0.4080 hc        1 MOL      0.054229
     31 H11        -1.0550   -6.6080   -0.0160 hc        1 MOL      0.054229
     32 H12        -0.0380   -5.3650   -1.8880 hc        1 MOL     -0.035323
     33 H13        -0.9490   -3.8710   -1.3700 hc        1 MOL     -0.035323
     34 H14        -3.0240   -5.3700   -1.5840 hc        1 MOL     -0.000419
     35 H15        -2.0840   -6.4990   -2.5340 hc        1 MOL     -0.000419
     36 H16        -1.5190   -4.9330   -4.1480 hx        1 MOL      0.039356
     37 H17        -2.2060   -3.5660   -3.3590 hx        1 MOL      0.039356
     38 H18        -3.8180   -5.9240   -4.2550 hn        1 MOL      0.336141
     39 H19        -4.3650   -4.5530   -3.4600 hn        1 MOL      0.336141
     40 H20        -3.7780   -4.4680   -4.9750 hn        1 MOL      0.336141
     41 N4          2.2180   -4.7900   -0.4100 n         1 MOL      0.040958
     42 C13         3.4590   -5.0480   -1.1780 c3        1 MOL     -0.150351
     43 C14         4.6510   -4.3830   -0.4410 c         1 MOL      0.399676
     44 O6          5.7520   -4.7320   -0.8580 o         1 MOL     -0.509260
     45 C15         3.3230   -4.6100   -2.6540 c3        1 MOL     -0.047586
     46 C16         2.3820   -3.4060   -2.9580 c         1 MOL      0.722320
     47 O7          2.3380   -2.3960   -2.1890 o         1 MOL     -0.736719
     48 O8          1.6970   -3.5060   -3.9650 o         1 MOL     -0.736719
     49 H21         1.9160   -3.8400   -0.2370 hn        1 MOL      0.038570
     50 H22         3.5900   -6.1330   -1.2270 h1        1 MOL      0.139685
     51 H23         2.8850   -5.4860   -3.1400 hc        1 MOL      0.035920
     52 H24         4.2770   -4.3780   -3.1310 hc        1 MOL      0.035920
     53 N5          4.4270   -3.6230    0.6360 n         1 MOL      0.019480
     54 C17         5.5050   -3.1120    1.4590 c3        1 MOL     -0.106305
     55 C18         6.3240   -2.1210    0.7250 c         1 MOL      0.487198
     56 O9          7.5360   -2.2780    0.8430 o         1 MOL     -0.537082
     57 H25         3.4630   -3.5170    0.9340 hn        1 MOL     -0.038126
     58 H26         6.1570   -3.9090    1.8080 h1        1 MOL      0.090536
     59 H27         5.0690   -2.5690    2.3080 h1        1 MOL      0.090536
     60 N6          5.7050   -1.2170   -0.0580 n         1 MOL     -0.249351
     61 C19         6.3890   -0.2620   -0.9550 c3        1 MOL      0.019763
     62 C20         6.5160    1.1200   -0.3050 c         1 MOL      0.318665
     63 O10         7.2620    1.9930   -0.7860 o         1 MOL     -0.540362
     64 C21         5.7950   -0.1840   -2.3130 c3        1 MOL     -0.093962
     65 C22         4.6610    0.8100   -2.4810 c         1 MOL      0.485009
     66 N7          4.7660    1.8570   -3.2080 n         1 MOL     -0.635510
     67 O11         3.5580    0.6510   -1.9170 o         1 MOL     -0.541459
     68 H28         4.7040   -1.1110    0.0090 hn        1 MOL      0.089884
     69 H29         7.4140   -0.6350   -1.0440 h1        1 MOL      0.124915
     70 H30         5.5430   -1.1530   -2.7430 hc        1 MOL      0.071986
     71 H31         6.5570    0.1630   -3.0070 hc        1 MOL      0.071986
     72 H32         5.6500    2.0770   -3.6590 hn        1 MOL      0.339456
     73 H33         4.1090    2.6160   -3.2400 hn        1 MOL      0.339456
     74 N8          5.7970    1.3380    0.7580 n         1 MOL     -0.084239
     75 C23         5.7840    2.5190    1.5500 c3        1 MOL     -0.333905
     76 C24         4.4510    3.2630    1.6770 c         1 MOL      0.521752
     77 O12         4.4170    4.2310    2.4600 o         1 MOL     -0.564923
     78 H34         5.2100    0.5570    1.0280 hn        1 MOL      0.230096
     79 H35         6.4960    3.2490    1.1800 h1        1 MOL      0.165301
     80 H36         6.0310    2.2150    2.5690 h1        1 MOL      0.165301
     81 N9          3.5110    3.0190    0.8270 n         1 MOL     -0.229250
     82 C25         2.3300    3.7320    0.5960 c3        1 MOL      0.064538
     83 C26         1.0830    2.8360    0.4860 c         1 MOL      0.543607
     84 O13         1.0780    1.8130   -0.2440 o         1 MOL     -0.554657
     85 C27         2.5240    4.5360   -0.6930 c3        1 MOL      0.007854
     86 C28         3.7000    5.4240   -0.6590 ca        1 MOL      0.182241
     87 C29         4.8950    5.0560   -1.3620 ca        1 MOL     -0.349973
     88 C30         3.7030    6.6770    0.0210 ca        1 MOL     -0.349973
     89 C31         6.0170    5.8620   -1.1600 ca        1 MOL     -0.096573
     90 C32         4.8240    7.5550    0.1300 ca        1 MOL     -0.096573
     91 C33         5.9970    7.1570   -0.5330 ca        1 MOL      0.227529
     92 O14         7.0900    7.9250   -0.5250 oh        1 MOL     -0.474684
     93 H37         3.5760    2.1010    0.4070 hn        1 MOL      0.212765
     94 H38         2.2130    4.4540    1.4080 h1        1 MOL      0.055828
     95 H39         1.6510    5.1820   -0.7760 hc        1 MOL     -0.014580
     96 H40         2.6060    3.8850   -1.5670 hc        1 MOL     -0.014580
     97 H41         5.0860    4.0880   -1.7920 ha        1 MOL      0.172953
     98 H42         2.7650    6.9670    0.4780 ha        1 MOL      0.172953
     99 H43         6.9310    5.5480   -1.6350 ha        1 MOL      0.115991
    100 H44         4.8450    8.4690    0.7000 ha        1 MOL      0.115991
    101 H45         6.8890    8.8270   -0.2490 ho        1 MOL      0.376824
    102 N10         0.0480    3.2540    1.2790 n         1 MOL     -0.573587
    103 C34        -1.2660    2.5900    1.3230 c3        1 MOL      0.147130
    104 C35        -2.2480    3.4570    0.4720 c         1 MOL      0.561002
    105 O15        -2.5220    4.6180    0.8550 o         1 MOL     -0.534045
    106 C36        -1.5650    2.2950    2.8170 c3        1 MOL     -0.152527
    107 C37        -0.7830    1.1390    3.4230 c3        1 MOL      0.190862
    108 C38        -3.0880    1.9910    2.9970 c3        1 MOL      0.059029
    109 C39        -1.2110    0.7780    4.9040 c3        1 MOL     -0.183961
    110 H46         0.1210    4.0770    1.8730 hn        1 MOL      0.337504
    111 H47        -1.3370    1.6410    0.7850 h1        1 MOL     -0.070872
    112 H48        -1.4010    3.1990    3.4060 hc        1 MOL      0.061720
    113 H49         0.2960    1.2830    3.4320 hc        1 MOL      0.010536
    114 H50        -1.0750    0.2150    2.9150 hc        1 MOL      0.010536
    115 H51        -3.6450    2.7450    2.4470 hc        1 MOL     -0.019897
    116 H52        -3.3580    0.9970    2.6610 hc        1 MOL     -0.019897
    117 H53        -3.4200    2.0500    4.0360 hc        1 MOL     -0.019897
    118 H54        -0.5410    0.0770    5.4090 hc        1 MOL      0.031921
    119 H55        -1.0900    1.6770    5.5050 hc        1 MOL      0.031921
    120 H56        -2.1550    0.2500    4.7670 hc        1 MOL      0.031921
    121 N11        -2.9000    2.9530   -0.6290 n         1 MOL     -0.422273
    122 C40        -4.1150    3.5000   -1.2470 c3        1 MOL      0.036804
    123 C41        -5.3920    3.2730   -0.4670 c         1 MOL      0.466970
    124 O16        -5.3650    2.5180    0.5280 o         1 MOL     -0.322176
    125 C42        -4.1830    3.0160   -2.6880 c3        1 MOL     -0.114226
    126 O17        -4.1580    1.5690   -2.6540 oh        1 MOL     -0.517673
    127 H57        -2.5480    2.0740   -0.9890 hn        1 MOL      0.285054
    128 H58        -4.0450    4.5970   -1.3270 h1        1 MOL      0.070581
    129 H59        -3.2870    3.3490   -3.2100 h1        1 MOL      0.103275
    130 H60        -5.0780    3.4090   -3.1720 h1        1 MOL      0.103275
    131 H61        -3.3640    1.3240   -3.1350 ho        1 MOL      0.398724
    132 N12        -6.5470    3.8680   -0.9190 n         1 MOL     -0.480208
    133 C43        -7.8200    3.4510   -0.2790 c3        1 MOL      0.120265
    134 C44        -8.1510    2.0470   -0.5800 c         1 MOL      0.475115
    135 O18        -8.7290    1.2990    0.2370 o         1 MOL     -0.505046
    136 C45        -8.8540    4.4340   -0.7580 c3        1 MOL     -0.433489
    137 H62        -6.6220    4.4190   -1.7630 hn        1 MOL      0.315994
    138 H63        -7.6000    3.6240    0.7740 h1        1 MOL      0.120965
    139 H64        -8.8900    5.2980   -0.0930 hc        1 MOL      0.132603
    140 H65        -8.6300    4.8890   -1.7170 hc        1 MOL      0.132603
    141 H66        -9.8750    4.0440   -0.7090 hc        1 MOL      0.132603
    142 N13        -7.6230    1.4810   -1.7000 n         1 MOL     -0.464417
    143 C46        -7.7400    0.0630   -2.0520 c3        1 MOL      0.191589
    144 C47        -6.9440   -0.7800   -1.0980 c         1 MOL      0.339833
    145 O19        -7.0790   -1.9870   -1.1130 o         1 MOL     -0.577762
    146 C48        -7.4800   -0.1390   -3.5530 c3        1 MOL     -0.120159
    147 H67        -7.1530    2.1230   -2.3290 hn        1 MOL      0.287072
    148 H68        -8.7850   -0.2270   -1.9740 h1        1 MOL      0.082261
    149 H69        -8.0810    0.5760   -4.1080 hc        1 MOL      0.028250
    150 H70        -6.4110   -0.0100   -3.7300 hc        1 MOL      0.028250
    151 H71        -7.7330   -1.1670   -3.8350 hc        1 MOL      0.028250
    152 N14        -6.1620   -0.2890   -0.1760 n         1 MOL      0.132317
    153 C49        -5.3510   -1.1150    0.7340 c3        1 MOL     -0.036300
    154 C50        -5.8930   -0.8960    2.1380 c         1 MOL      0.401686
    155 O20        -6.0800   -1.8590    2.9160 o         1 MOL     -0.539220
    156 C51        -3.8850   -0.7210    0.4990 c3        1 MOL     -0.033483
    157 C52        -3.2350   -1.3670   -0.6930 c3        1 MOL      0.085567
    158 C53        -1.7870   -0.9430   -0.7070 c         1 MOL      0.559136
    159 O21        -1.4950    0.0700   -1.3090 o         1 MOL     -0.634134
    160 O22        -0.8890   -1.7520   -0.2900 o         1 MOL     -0.634134
    161 H72        -6.1710    0.6990   -0.0020 hn        1 MOL     -0.127771
    162 H73        -5.4720   -2.1690    0.4570 h1        1 MOL      0.078459
    163 H74        -3.3120   -1.1940    1.2990 hc        1 MOL      0.092424
    164 H75        -3.8280    0.3660    0.5190 hc        1 MOL      0.092424
    165 H76        -3.7470   -1.0210   -1.5820 hc        1 MOL     -0.062086
    166 H77        -3.2990   -2.4560   -0.6400 hc        1 MOL     -0.062086
    167 N15        -6.1830    0.3440    2.3910 n         1 MOL     -0.048101
    168 C54        -7.0590    0.6310    3.5460 c3        1 MOL     -0.238668
    169 H78        -7.9050    1.2360    3.2180 h1        1 MOL      0.099473
    170 H79        -7.4230   -0.3060    3.9680 h1        1 MOL      0.099473
    171 H80        -6.4950    1.1760    4.3030 h1        1 MOL      0.099473
    172 H81        -5.9320    1.1000    1.7640 hn        1 MOL      0.105413
    173 Ca1         1.1110   -0.3990   -1.6070 Ca        1 MOL      1.716037
    174 O23        -0.2530   -1.5560   -3.7640 oh        1 MOL     -0.856319
    175 H82        -0.6170   -1.3360   -4.6280 ho        1 MOL      0.408088
    176 H83         0.4030   -2.2380   -3.9500 ho        1 MOL      0.408088
    177 O24         1.0940    1.5280   -3.4500 oh        1 MOL     -0.856319
    178 H84         1.9200    1.7220   -3.8880 ho        1 MOL      0.408088
    179 H85         0.5730    2.3200   -3.5350 ho        1 MOL      0.408088
@<TRIPOS>BOND
     1    1    2 1   
     2    1    4 1   
     3    1    5 1   
     4    1    6 1   
     5    2    3 2   
     6    2    7 1   
     7    7    8 1   
     8    7   15 1   
     9    8    9 1   
    10    8   11 1   
    11    8   16 1   
    12    9   10 2   
    13    9   19 1   
    14   11   12 1   
    15   11   17 1   
    16   11   18 1   
    17   12   13 1   
    18   12   14 1   
    19   19   20 1   
    20   19   28 1   
    21   20   21 1   
    22   20   23 1   
    23   20   29 1   
    24   21   22 2   
    25   21   41 1   
    26   23   24 1   
    27   23   30 1   
    28   23   31 1   
    29   24   25 1   
    30   24   32 1   
    31   24   33 1   
    32   25   26 1   
    33   25   34 1   
    34   25   35 1   
    35   26   27 1   
    36   26   36 1   
    37   26   37 1   
    38   27   38 1   
    39   27   39 1   
    40   27   40 1   
    41   41   42 1   
    42   41   49 1   
    43   42   43 1   
    44   42   45 1   
    45   42   50 1   
    46   43   44 2   
    47   43   53 1   
    48   45   46 1   
    49   45   51 1   
    50   45   52 1   
    51   46   47 1   
    52   46   48 1   
    53   53   54 1   
    54   53   57 1   
    55   54   55 1   
    56   54   58 1   
    57   54   59 1   
    58   55   56 2   
    59   55   60 1   
    60   60   61 1   
    61   60   68 1   
    62   61   62 1   
    63   61   64 1   
    64   61   69 1   
    65   62   63 2   
    66   62   74 1   
    67   64   65 1   
    68   64   70 1   
    69   64   71 1   
    70   65   66 1   
    71   65   67 2   
    72   66   72 1   
    73   66   73 1   
    74   74   75 1   
    75   74   78 1   
    76   75   76 1   
    77   75   79 1   
    78   75   80 1   
    79   76   77 2   
    80   76   81 1   
    81   81   82 1   
    82   81   93 1   
    83   82   83 1   
    84   82   85 1   
    85   82   94 1   
    86   83   84 2   
    87   83  102 1   
    88   85   86 1   
    89   85   95 1   
    90   85   96 1   
    91   86   87 ar  
    92   86   88 ar  
    93   87   89 ar  
    94   87   97 1   
    95   88   90 ar  
    96   88   98 1   
    97   89   91 ar  
    98   89   99 1   
    99   90   91 ar  
   100   90  100 1   
   101   91   92 1   
   102   92  101 1   
   103  102  103 1   
   104  102  110 1   
   105  103  104 1   
   106  103  106 1   
   107  103  111 1   
   108  104  105 2   
   109  104  121 1   
   110  106  107 1   
   111  106  108 1   
   112  106  112 1   
   113  107  109 1   
   114  107  113 1   
   115  107  114 1   
   116  108  115 1   
   117  108  116 1   
   118  108  117 1   
   119  109  118 1   
   120  109  119 1   
   121  109  120 1   
   122  121  122 1   
   123  121  127 1   
   124  122  123 1   
   125  122  125 1   
   126  122  128 1   
   127  123  124 2   
   128  123  132 1   
   129  125  126 1   
   130  125  129 1   
   131  125  130 1   
   132  126  131 1   
   133  132  133 1   
   134  132  137 1   
   135  133  134 1   
   136  133  136 1   
   137  133  138 1   
   138  134  135 2   
   139  134  142 1   
   140  136  139 1   
   141  136  140 1   
   142  136  141 1   
   143  142  143 1   
   144  142  147 1   
   145  143  144 1   
   146  143  146 1   
   147  143  148 1   
   148  144  145 2   
   149  144  152 1   
   150  146  149 1   
   151  146  150 1   
   152  146  151 1   
   153  152  153 1   
   154  152  161 1   
   155  153  154 1   
   156  153  156 1   
   157  153  162 1   
   158  154  155 2   
   159  154  167 1   
   160  156  157 1   
   161  156  163 1   
   162  156  164 1   
   163  157  158 1   
   164  157  165 1   
   165  157  166 1   
   166  158  159 1   
   167  158  160 1   
   168  167  168 1   
   169  167  172 1   
   170  168  169 1   
   171  168  170 1   
   172  168  171 1   
   173  174  175 1   
   174  174  176 1   
   175  177  178 1   
   176  177  179 1   
@<TRIPOS>SUBSTRUCTURE
     1 MOL         1 TEMP              0 ****  ****    0 ROOT
