@<TRIPOS>MOLECULE
MOL
  175   173     1     0     0
SMALL
resp


@<TRIPOS>ATOM
      1 C1          0.3510    4.3840    5.3890 c3        1 MOL     -0.442882
      2 C2         -0.1690    4.3450    3.8980 c         1 MOL      0.659025
      3 O1          0.6630    4.2660    2.9350 o         1 MOL     -0.531631
      4 H1          1.0930    3.5980    5.5350 hc        1 MOL      0.112562
      5 H2          0.8080    5.3540    5.5900 hc        1 MOL      0.112562
      6 H3         -0.4840    4.2270    6.0710 hc        1 MOL      0.112562
      7 N1         -1.5030    4.2820    3.7430 n         1 MOL     -0.628158
      8 C3         -2.1190    3.9110    2.4850 c3        1 MOL      0.156930
      9 C4         -2.2390    5.0690    1.4620 c         1 MOL      0.594463
     10 O2         -2.1240    6.2440    1.8310 o         1 MOL     -0.571455
     11 C5         -3.4450    3.1180    2.8000 c3        1 MOL     -0.198963
     12 C6         -4.0890    2.5880    1.5590 c         1 MOL      0.660962
     13 O3         -5.3240    2.7170    1.4650 o         1 MOL     -0.646491
     14 O4         -3.4650    2.1540    0.5680 o         1 MOL     -0.646491
     15 H4         -2.0780    4.4650    4.5510 hn        1 MOL      0.342088
     16 H5         -1.4890    3.2160    1.9440 h1        1 MOL      0.042266
     17 H6         -4.1720    3.7490    3.3180 hc        1 MOL      0.028565
     18 H7         -3.2840    2.2350    3.4290 hc        1 MOL      0.028565
     19 N2         -2.5580    4.7160    0.2290 n         1 MOL     -0.519784
     20 C7         -3.1240    5.6380   -0.7820 c3        1 MOL      0.303093
     21 C8         -4.0650    5.0530   -1.8480 c         1 MOL      0.275314
     22 O5         -4.5170    5.7360   -2.8120 o         1 MOL     -0.551453
     23 C9         -1.9900    6.2850   -1.5270 c3        1 MOL     -0.365197
     24 H8         -2.5530    3.7300    0.0250 hn        1 MOL      0.375676
     25 H9         -3.6880    6.3780   -0.2020 h1        1 MOL      0.027316
     26 H10        -1.6200    5.6810   -2.3580 hc        1 MOL      0.095929
     27 H11        -2.2470    7.2100   -2.0600 hc        1 MOL      0.095929
     28 H12        -1.2030    6.5170   -0.8040 hc        1 MOL      0.095929
     29 N3         -4.3590    3.7530   -1.8390 n         1 MOL     -0.088791
     30 C10        -5.0910    3.0830   -2.9220 c3        1 MOL      0.201126
     31 C11        -6.3380    2.3620   -2.4480 c         1 MOL      0.199909
     32 O6         -7.2660    2.0460   -3.2670 o         1 MOL     -0.503634
     33 C12        -4.1100    2.2750   -3.8140 c3        1 MOL     -0.270098
     34 C13        -3.3100    1.1680   -3.0150 c         1 MOL      0.758297
     35 O7         -3.8490    0.5010   -2.0970 o         1 MOL     -0.694229
     36 O8         -2.1050    1.0440   -3.3600 o         1 MOL     -0.694229
     37 H13        -3.9790    3.1800   -1.1120 hn        1 MOL      0.042353
     38 H14        -5.5450    3.7950   -3.6140 h1        1 MOL      0.054084
     39 H15        -3.4980    3.0850   -4.2180 hc        1 MOL      0.069763
     40 H16        -4.6860    1.7630   -4.5860 hc        1 MOL      0.069763
     41 N4         -6.3590    1.9470   -1.1430 n         1 MOL     -0.022988
     42 C14        -7.3270    0.9990   -0.5970 c3        1 MOL     -0.078743
     43 C15        -7.3050   -0.4420   -1.1420 c         1 MOL      0.376961
     44 O9         -8.3740   -1.0170   -1.3420 o         1 MOL     -0.572351
     45 H17        -5.8450    2.3840   -0.3890 hn        1 MOL      0.076995
     46 H18        -8.3200    1.4260   -0.7200 h1        1 MOL      0.065282
     47 H19        -7.1470    0.9400    0.4810 h1        1 MOL      0.065282
     48 N5         -6.1440   -1.0710   -1.4860 n         1 MOL      0.036895
     49 C16        -6.1070   -2.5050   -1.9200 c3        1 MOL     -0.185698
     50 C17        -5.9770   -3.5120   -0.7960 c         1 MOL      0.489386
     51 O10        -5.8200   -4.7170   -0.9470 o         1 MOL     -0.519738
     52 C18        -5.0650   -2.6040   -2.9770 c3        1 MOL     -0.015561
     53 C19        -3.5860   -2.6040   -2.4790 c         1 MOL      0.602932
     54 N6         -2.6270   -2.9190   -3.3420 n         1 MOL     -0.643687
     55 O11        -3.2310   -2.4480   -1.3470 o         1 MOL     -0.729726
     56 H20        -5.2660   -0.5770   -1.5300 hn        1 MOL      0.067997
     57 H21        -7.0180   -2.8730   -2.3910 h1        1 MOL      0.134840
     58 H22        -5.0600   -1.8340   -3.7430 hc        1 MOL      0.026520
     59 H23        -5.0510   -3.5310   -3.5450 hc        1 MOL      0.026520
     60 H24        -2.9310   -2.8490   -4.3020 hn        1 MOL      0.327674
     61 H25        -1.6650   -2.9050   -3.0370 hn        1 MOL      0.327674
     62 N7         -6.1490   -3.1310    0.4320 n         1 MOL     -0.218832
     63 C20        -6.2630   -3.9620    1.5870 c3        1 MOL     -0.247428
     64 C21        -4.9480   -4.6220    1.9900 c         1 MOL      0.548210
     65 O12        -4.9010   -5.5900    2.7970 o         1 MOL     -0.572172
     66 H26        -6.3460   -2.1560    0.5980 hn        1 MOL      0.214549
     67 H27        -7.0280   -4.7160    1.4220 h1        1 MOL      0.116231
     68 H28        -6.6090   -3.3550    2.4220 h1        1 MOL      0.116231
     69 N8         -3.8220   -4.1720    1.3750 n         1 MOL     -0.394999
     70 C22        -2.4510   -4.6680    1.6410 c3        1 MOL     -0.020021
     71 C23        -1.4370   -3.4700    1.6390 c         1 MOL      0.446379
     72 O13        -1.7990   -2.4790    1.0110 o         1 MOL     -0.501328
     73 C24        -1.8810   -5.5890    0.4900 c3        1 MOL      0.454763
     74 C25        -2.5480   -6.9810    0.4270 c3        1 MOL     -0.453406
     75 O14        -2.2270   -4.9600   -0.7250 oh        1 MOL     -0.607655
     76 H29        -3.8850   -3.5040    0.6160 hn        1 MOL      0.332850
     77 H30        -2.4510   -5.2450    2.5590 h1        1 MOL      0.066183
     78 H31        -0.8090   -5.6670    0.6740 h1        1 MOL     -0.036102
     79 H32        -2.2120   -3.9990   -0.6740 ho        1 MOL      0.409083
     80 H33        -3.6150   -6.8880    0.2240 hc        1 MOL      0.114912
     81 H34        -2.1270   -7.5830   -0.3870 hc        1 MOL      0.114912
     82 H35        -2.2940   -7.5030    1.3550 hc        1 MOL      0.114912
     83 N9         -0.3290   -3.5500    2.3520 n         1 MOL     -0.517235
     84 C26         0.8010   -2.5430    2.3030 c3        1 MOL      0.240007
     85 C27         1.6130   -2.9230    1.0610 c         1 MOL      0.499193
     86 O15         1.9440   -4.0960    0.8940 o         1 MOL     -0.571738
     87 C28         1.6060   -2.5080    3.6120 c3        1 MOL      0.004630
     88 C29         1.0900   -1.4600    4.6100 c3        1 MOL      0.105222
     89 C30         3.0980   -2.4520    3.4930 c3        1 MOL     -0.212409
     90 C31         1.6150   -1.7520    6.0510 c3        1 MOL     -0.059402
     91 H36        -0.1480   -4.4040    2.8610 hn        1 MOL      0.276560
     92 H37         0.4020   -1.5560    2.0600 h1        1 MOL      0.008412
     93 H38         1.4090   -3.4810    4.0740 hc        1 MOL      0.011421
     94 H39        -0.0070   -1.4400    4.6500 hc        1 MOL     -0.036941
     95 H40         1.3730   -0.4700    4.2710 hc        1 MOL     -0.036941
     96 H41         3.3570   -1.5770    2.9020 hc        1 MOL      0.050903
     97 H42         3.6890   -2.4720    4.4150 hc        1 MOL      0.050903
     98 H43         3.4400   -3.3600    2.9950 hc        1 MOL      0.050903
     99 H44         1.2630   -2.6910    6.4690 hc        1 MOL      0.004402
    100 H45         2.7030   -1.7760    6.0690 hc        1 MOL      0.004402
    101 H46         1.3020   -0.9400    6.7040 hc        1 MOL      0.004402
    102 N10         1.9230   -1.9050    0.2250 n         1 MOL     -0.096831
    103 C32         2.7200   -1.9820   -1.0080 c3        1 MOL      0.035091
    104 C33         4.2710   -1.6160   -0.7330 c         1 MOL      0.419818
    105 O16         4.5890   -1.1360    0.3230 o         1 MOL     -0.370689
    106 C34         2.1480   -1.0310   -2.1190 c3        1 MOL     -0.252825
    107 C35         0.6700   -1.3910   -2.4850 c         1 MOL      0.768342
    108 O17        -0.1810   -1.0160   -1.6720 o         1 MOL     -0.661576
    109 O18         0.4340   -2.0680   -3.4550 o         1 MOL     -0.661576
    110 H47         1.4880   -0.9980    0.2920 hn        1 MOL     -0.077499
    111 H48         2.5210   -3.0130   -1.3140 h1        1 MOL      0.065055
    112 H49         2.7540   -1.2190   -3.0090 hc        1 MOL      0.058083
    113 H50         2.3290    0.0030   -1.8050 hc        1 MOL      0.058083
    114 N11         5.1620   -1.7870   -1.7300 n         1 MOL     -0.699134
    115 C36         6.5960   -1.5490   -1.5310 c3        1 MOL      0.508981
    116 C37         6.7660   -0.0800   -1.1130 c         1 MOL      0.246264
    117 O19         7.4610    0.1700   -0.1450 o         1 MOL     -0.472155
    118 C38         7.5640   -2.0260   -2.5500 c3        1 MOL     -0.146472
    119 C39         9.0130   -1.7410   -2.3040 ca        1 MOL      0.010151
    120 C40         9.6260   -2.0790   -1.0830 ca        1 MOL     -0.102911
    121 C41         9.7400   -0.9770   -3.2530 ca        1 MOL     -0.102911
    122 C42        10.9840   -1.8430   -0.8800 ca        1 MOL     -0.146196
    123 C43        11.0830   -0.7340   -2.9850 ca        1 MOL     -0.146196
    124 C44        11.6850   -1.0910   -1.8350 ca        1 MOL     -0.055246
    125 H51         4.7910   -1.9900   -2.6480 hn        1 MOL      0.339064
    126 H52         6.9430   -2.2310   -0.7660 h1        1 MOL      0.035779
    127 H53         7.2550   -1.6190   -3.5140 hc        1 MOL      0.031969
    128 H54         7.3570   -3.0830   -2.6820 hc        1 MOL      0.031969
    129 H55         9.0080   -2.4270   -0.2610 ha        1 MOL      0.101954
    130 H56         9.3250   -0.5570   -4.1620 ha        1 MOL      0.101954
    131 H57        11.4810   -2.1570    0.0300 ha        1 MOL      0.111301
    132 H58        11.5910   -0.0630   -3.6650 ha        1 MOL      0.111301
    133 H59        12.7440   -0.9000   -1.6780 ha        1 MOL      0.080961
    134 N12         6.1930    0.8990   -1.7940 n         1 MOL      0.063880
    135 C45         6.3230    2.2660   -1.4350 c3        1 MOL     -0.122302
    136 C46         5.6790    2.7140   -0.1020 c         1 MOL      0.322304
    137 O20         6.1200    3.7290    0.4730 o         1 MOL     -0.488157
    138 C47         5.7650    3.0850   -2.5450 c3        1 MOL      0.046383
    139 C48         5.9300    2.1850   -3.7570 c3        1 MOL      0.026466
    140 C49         5.6900    0.7990   -3.1680 c3        1 MOL     -0.124430
    141 H60         7.3850    2.5280   -1.3750 h1        1 MOL      0.078938
    142 H61         4.7190    3.2760   -2.2880 hc        1 MOL      0.024035
    143 H62         6.1630    4.0660   -2.8170 hc        1 MOL      0.024035
    144 H63         5.2180    2.4260   -4.5500 hc        1 MOL      0.008619
    145 H64         6.9150    2.3620   -4.1890 hc        1 MOL      0.008619
    146 H65         4.6370    0.5430   -3.1830 h1        1 MOL      0.047283
    147 H66         6.2120    0.0420   -3.7620 h1        1 MOL      0.047283
    148 N13         4.7220    1.8600    0.4080 n         1 MOL     -0.056488
    149 C50         3.9910    2.1240    1.6780 c3        1 MOL     -0.099419
    150 C51         4.7120    1.4940    2.8720 c         1 MOL      0.381019
    151 O21         4.8710    2.0260    3.9710 o         1 MOL     -0.566160
    152 C52         2.5750    1.5400    1.5420 c3        1 MOL     -0.093203
    153 C53         1.7450    2.2910    0.5140 c3        1 MOL     -0.195110
    154 C54         0.3190    1.7750    0.4870 c         1 MOL      0.729994
    155 O22        -0.0010    0.7180    1.1300 o         1 MOL     -0.713930
    156 O23        -0.4860    2.3210   -0.3020 o         1 MOL     -0.713930
    157 H67         4.4300    1.0300   -0.0920 hn        1 MOL      0.113845
    158 H68         3.9070    3.1970    1.8420 h1        1 MOL      0.121611
    159 H69         2.0360    1.6620    2.4840 hc        1 MOL      0.102516
    160 H70         2.6320    0.4620    1.3410 hc        1 MOL      0.102516
    161 H71         2.1340    2.1400   -0.4880 hc        1 MOL      0.083736
    162 H72         1.7180    3.3690    0.6820 hc        1 MOL      0.083736
    163 N14         5.5020    0.4990    2.5860 n         1 MOL      0.143930
    164 C55         6.4590   -0.0750    3.5130 c3        1 MOL     -0.295853
    165 H73         5.9280   -0.6440    4.2760 h1        1 MOL      0.095849
    166 H74         7.1370   -0.7360    2.9740 h1        1 MOL      0.095849
    167 H75         7.0300    0.7230    3.9870 h1        1 MOL      0.095849
    168 H76         5.4700    0.0970    1.6620 hn        1 MOL     -0.050236
    169 Ca1        -2.1670   -0.1030   -0.2650 Ca        1 MOL      1.696472
    170 O24        -4.1030   -0.6740    1.3850 oh        1 MOL     -0.771474
    171 H77        -3.6740   -0.8320    2.2330 ho        1 MOL      0.375379
    172 H78        -4.9720   -0.3430    1.6220 ho        1 MOL      0.375379
    173 O25        -1.7900    0.2330    2.6820 oh        1 MOL     -0.771474
    174 H79        -1.8910    0.7620    3.4780 ho        1 MOL      0.375379
    175 H80        -1.0070    0.5830    2.2540 ho        1 MOL      0.375379
@<TRIPOS>BOND
     1    1    2 1   
     2    1    4 1   
     3    1    5 1   
     4    1    6 1   
     5    2    3 2   
     6    2    7 1   
     7    7    8 1   
     8    7   15 1   
     9    8    9 1   
    10    8   11 1   
    11    8   16 1   
    12    9   10 2   
    13    9   19 1   
    14   11   12 1   
    15   11   17 1   
    16   11   18 1   
    17   12   13 1   
    18   12   14 1   
    19   19   20 1   
    20   19   24 1   
    21   20   21 1   
    22   20   23 1   
    23   20   25 1   
    24   21   22 2   
    25   21   29 1   
    26   23   26 1   
    27   23   27 1   
    28   23   28 1   
    29   29   30 1   
    30   29   37 1   
    31   30   31 1   
    32   30   33 1   
    33   30   38 1   
    34   31   32 2   
    35   31   41 1   
    36   33   34 1   
    37   33   39 1   
    38   33   40 1   
    39   34   35 1   
    40   34   36 1   
    41   41   42 1   
    42   41   45 1   
    43   42   43 1   
    44   42   46 1   
    45   42   47 1   
    46   43   44 2   
    47   43   48 1   
    48   48   49 1   
    49   48   56 1   
    50   49   50 1   
    51   49   52 1   
    52   49   57 1   
    53   50   51 2   
    54   50   62 1   
    55   52   53 1   
    56   52   58 1   
    57   52   59 1   
    58   53   54 1   
    59   53   55 2   
    60   54   60 1   
    61   54   61 1   
    62   62   63 1   
    63   62   66 1   
    64   63   64 1   
    65   63   67 1   
    66   63   68 1   
    67   64   65 2   
    68   64   69 1   
    69   69   70 1   
    70   69   76 1   
    71   70   71 1   
    72   70   73 1   
    73   70   77 1   
    74   71   72 2   
    75   71   83 1   
    76   73   74 1   
    77   73   75 1   
    78   73   78 1   
    79   74   80 1   
    80   74   81 1   
    81   74   82 1   
    82   75   79 1   
    83   83   84 1   
    84   83   91 1   
    85   84   85 1   
    86   84   87 1   
    87   84   92 1   
    88   85   86 2   
    89   85  102 1   
    90   87   88 1   
    91   87   89 1   
    92   87   93 1   
    93   88   90 1   
    94   88   94 1   
    95   88   95 1   
    96   89   96 1   
    97   89   97 1   
    98   89   98 1   
    99   90   99 1   
   100   90  100 1   
   101   90  101 1   
   102  102  103 1   
   103  102  110 1   
   104  103  104 1   
   105  103  106 1   
   106  103  111 1   
   107  104  105 2   
   108  104  114 1   
   109  106  107 1   
   110  106  112 1   
   111  106  113 1   
   112  107  108 1   
   113  107  109 1   
   114  114  115 1   
   115  114  125 1   
   116  115  116 1   
   117  115  118 1   
   118  115  126 1   
   119  116  117 2   
   120  116  134 1   
   121  118  119 1   
   122  118  127 1   
   123  118  128 1   
   124  119  120 ar  
   125  119  121 ar  
   126  120  122 ar  
   127  120  129 1   
   128  121  123 ar  
   129  121  130 1   
   130  122  124 ar  
   131  122  131 1   
   132  123  124 ar  
   133  123  132 1   
   134  124  133 1   
   135  134  135 1   
   136  134  140 1   
   137  135  136 1   
   138  135  138 1   
   139  135  141 1   
   140  136  137 2   
   141  136  148 1   
   142  138  139 1   
   143  138  142 1   
   144  138  143 1   
   145  139  140 1   
   146  139  144 1   
   147  139  145 1   
   148  140  146 1   
   149  140  147 1   
   150  148  149 1   
   151  148  157 1   
   152  149  150 1   
   153  149  152 1   
   154  149  158 1   
   155  150  151 2   
   156  150  163 1   
   157  152  153 1   
   158  152  159 1   
   159  152  160 1   
   160  153  154 1   
   161  153  161 1   
   162  153  162 1   
   163  154  155 1   
   164  154  156 1   
   165  163  164 1   
   166  163  168 1   
   167  164  165 1   
   168  164  166 1   
   169  164  167 1   
   170  170  171 1   
   171  170  172 1   
   172  173  174 1   
   173  173  175 1   
@<TRIPOS>SUBSTRUCTURE
     1 MOL         1 TEMP              0 ****  ****    0 ROOT
