@<TRIPOS>MOLECULE
MOL
  189   185     1     0     0
SMALL
resp


@<TRIPOS>ATOM
      1 C1          0.5760   -4.6260    5.8200 c3        1 MOL     -0.274062
      2 C2          0.7830   -4.0840    4.3620 c         1 MOL      0.753704
      3 O1          0.7300   -2.8680    4.1970 o         1 MOL     -0.576404
      4 H1         -0.4900   -4.6700    6.0430 hc        1 MOL      0.066047
      5 H2          1.0060   -5.6250    5.9020 hc        1 MOL      0.066047
      6 H3          1.0680   -3.9600    6.5290 hc        1 MOL      0.066047
      7 N1          1.0970   -4.9700    3.3650 n         1 MOL     -0.664519
      8 C3          1.6460   -4.5610    2.1340 c3        1 MOL      0.524683
      9 C4          1.0650   -5.3060    0.8700 c         1 MOL      0.377959
     10 O2          0.8270   -6.5330    0.9470 o         1 MOL     -0.592858
     11 C5          3.1400   -4.4810    2.1610 c3        1 MOL     -0.333483
     12 C6          3.6590   -4.0290    0.8230 c         1 MOL      0.665909
     13 O3          4.3050   -4.8590    0.1230 o         1 MOL     -0.647120
     14 O4          3.3150   -2.8790    0.3680 o         1 MOL     -0.647120
     15 H4          0.9870   -5.9510    3.5790 hn        1 MOL      0.322891
     16 H5          1.3980   -3.5140    1.9640 h1        1 MOL     -0.285027
     17 H6          3.6230   -5.4340    2.3970 hc        1 MOL      0.057075
     18 H7          3.4670   -3.7950    2.9390 hc        1 MOL      0.057075
     19 N2          0.8440   -4.5370   -0.2170 n         1 MOL     -0.024089
     20 C7          0.4010   -4.9420   -1.5460 c3        1 MOL     -0.133529
     21 C8          1.4990   -4.5910   -2.6140 c         1 MOL      0.518851
     22 O5          1.4140   -5.1550   -3.7130 o         1 MOL     -0.587238
     23 C9         -1.0180   -4.4760   -1.7830 c3        1 MOL      0.277130
     24 C10        -2.0950   -5.1950   -0.8950 c3        1 MOL     -0.045673
     25 C11        -1.4000   -4.4490   -3.3300 c3        1 MOL     -0.054796
     26 C12        -3.5670   -4.9770   -1.3010 c3        1 MOL     -0.130444
     27 H8          1.0620   -3.5440   -0.1390 hn        1 MOL      0.246134
     28 H9          0.3460   -6.0290   -1.5650 h1        1 MOL      0.062921
     29 H10        -1.1470   -3.4600   -1.4160 hc        1 MOL     -0.048765
     30 H11        -1.8720   -4.8490    0.1110 hc        1 MOL     -0.020143
     31 H12        -1.9530   -6.2640   -1.0300 hc        1 MOL     -0.020143
     32 H13        -1.2210   -5.3880   -3.8600 hc        1 MOL     -0.005260
     33 H14        -2.4390   -4.1880   -3.4950 hc        1 MOL     -0.005260
     34 H15        -0.7720   -3.6590   -3.7530 hc        1 MOL     -0.005260
     35 H16        -3.7490   -3.9030   -1.3660 hc        1 MOL      0.037171
     36 H17        -3.7980   -5.4990   -2.2350 hc        1 MOL      0.037171
     37 H18        -4.2940   -5.4280   -0.6290 hc        1 MOL      0.037171
     38 N3          2.4860   -3.7210   -2.3710 n         1 MOL     -0.156764
     39 C13         3.3620   -3.2400   -3.4850 c3        1 MOL      0.064240
     40 C14         4.8800   -3.0630   -3.2110 c         1 MOL      0.329267
     41 O6          5.6770   -3.0280   -4.1300 o         1 MOL     -0.546526
     42 C15         2.7900   -1.9230   -4.0600 c3        1 MOL     -0.219484
     43 C16         2.1870   -0.9940   -3.0810 c         1 MOL      0.781291
     44 O7          2.8020   -0.8720   -2.0230 o         1 MOL     -0.706573
     45 O8          1.1910   -0.3080   -3.4060 o         1 MOL     -0.706573
     46 H19         2.5880   -3.2710   -1.4800 hn        1 MOL     -0.116670
     47 H20         3.3390   -3.9640   -4.2940 h1        1 MOL      0.083296
     48 H21         1.9410   -2.1650   -4.7030 hc        1 MOL      0.050838
     49 H22         3.5770   -1.3600   -4.5560 hc        1 MOL      0.050838
     50 N4          5.2220   -2.9650   -1.9730 n         1 MOL     -0.045076
     51 C17         6.6690   -2.7880   -1.5860 c3        1 MOL     -0.156165
     52 C18         7.2020   -1.3710   -1.7300 c         1 MOL      0.407822
     53 O9          8.4790   -1.2020   -1.8460 o         1 MOL     -0.578231
     54 H23         4.5280   -3.0590   -1.2430 hn        1 MOL      0.171319
     55 H24         7.2170   -3.4180   -2.2800 h1        1 MOL      0.092057
     56 H25         6.8350   -3.1620   -0.5790 h1        1 MOL      0.092057
     57 N5          6.2860   -0.3710   -1.8710 n         1 MOL     -0.058718
     58 C19         6.4720    0.9600   -2.2800 c3        1 MOL     -0.190335
     59 C20         7.0380    1.9030   -1.2080 c         1 MOL      0.417801
     60 O10         7.3610    3.0530   -1.5550 o         1 MOL     -0.489741
     61 C21         5.1460    1.4590   -2.9410 c3        1 MOL     -0.256541
     62 C22         4.1490    2.0480   -1.9640 c         1 MOL      0.759832
     63 O11         3.9980    1.5790   -0.8700 o         1 MOL     -0.697490
     64 O12         3.3600    2.9460   -2.4150 o         1 MOL     -0.697490
     65 H26         5.3310   -0.5980   -1.6010 hn        1 MOL      0.211476
     66 H27         7.2610    1.0520   -3.0320 h1        1 MOL      0.138146
     67 H28         4.7050    0.5650   -3.3990 hc        1 MOL      0.089762
     68 H29         5.3210    2.2330   -3.6870 hc        1 MOL      0.089762
     69 N6          7.1020    1.4560    0.0860 n         1 MOL     -0.223550
     70 C23         7.4550    2.2400    1.2590 c3        1 MOL     -0.308678
     71 C24         6.3690    3.2210    1.8230 c         1 MOL      0.559078
     72 O13         6.6410    4.2610    2.4570 o         1 MOL     -0.561678
     73 H30         6.8980    0.4760    0.1870 hn        1 MOL      0.226075
     74 H31         8.3880    2.7900    1.1930 h1        1 MOL      0.127188
     75 H32         7.5020    1.4380    2.0050 h1        1 MOL      0.127188
     76 N7          5.1000    3.0200    1.3930 n         1 MOL     -0.446347
     77 C25         3.9610    3.8500    1.6850 c3        1 MOL     -0.060669
     78 C26         2.7460    2.9980    2.0480 c         1 MOL      0.620983
     79 O14         2.7020    1.8060    1.8420 o         1 MOL     -0.661416
     80 C27         3.6170    4.7450    0.4860 c3        1 MOL     -0.057444
     81 C28         4.8180    5.5060   -0.0160 c3        1 MOL     -0.232905
     82 C29         4.3180    6.5840   -0.9910 c         1 MOL      0.512388
     83 N8          3.8050    6.1070   -2.1090 n         1 MOL     -0.648149
     84 O15         4.1990    7.7880   -0.6920 o         1 MOL     -0.583059
     85 H33         4.8470    2.2970    0.7330 hn        1 MOL      0.359609
     86 H34         4.3030    4.4770    2.5030 h1        1 MOL      0.067033
     87 H35         2.9020    5.5010    0.8320 hc        1 MOL      0.065619
     88 H36         3.2060    4.1790   -0.3530 hc        1 MOL      0.065619
     89 H37         5.3950    4.7750   -0.5810 hc        1 MOL      0.121376
     90 H38         5.4590    5.9930    0.7140 hc        1 MOL      0.121376
     91 H39         3.6810    5.1080   -2.2440 hn        1 MOL      0.320965
     92 H40         3.5840    6.7790   -2.8310 hn        1 MOL      0.320965
     93 N9          1.7880    3.6900    2.5900 n         1 MOL     -0.405476
     94 C30         0.4300    3.1360    2.9240 c3        1 MOL      0.066774
     95 C31        -0.6230    3.6210    1.9290 c         1 MOL      0.343961
     96 O16        -1.0010    4.8320    1.8550 o         1 MOL     -0.548633
     97 C32        -0.0680    3.4680    4.2910 c3        1 MOL      0.218636
     98 C33        -1.4160    2.9040    4.7070 c3        1 MOL     -0.183741
     99 C34         0.8990    2.9510    5.2610 c3        1 MOL     -0.183741
    100 H41         1.9780    4.6450    2.8390 hn        1 MOL      0.268519
    101 H42         0.5190    2.0460    2.9170 h1        1 MOL      0.116354
    102 H43        -0.1140    4.5520    4.4530 hc        1 MOL     -0.015167
    103 H44        -1.6510    3.3180    5.6990 hc        1 MOL      0.030003
    104 H45        -2.1530    3.2800    4.0010 hc        1 MOL      0.030003
    105 H46        -1.3790    1.8200    4.7340 hc        1 MOL      0.030003
    106 H47         1.8490    3.4760    5.1980 hc        1 MOL      0.030003
    107 H48         0.5630    2.7990    6.2870 hc        1 MOL      0.030003
    108 H49         1.1900    1.9270    4.9920 hc        1 MOL      0.030003
    109 N10        -1.1920    2.7180    1.0560 n         1 MOL     -0.299324
    110 C35        -2.4570    2.8530    0.2580 c3        1 MOL      0.345895
    111 C36        -3.8150    2.4180    0.8770 c         1 MOL      0.061296
    112 O17        -3.9640    1.6940    1.8740 o         1 MOL     -0.196031
    113 C37        -2.2130    2.1500   -1.1070 c3        1 MOL     -0.264882
    114 C38        -3.2960    2.2210   -2.1700 c         1 MOL      0.770253
    115 N11        -3.3010    3.2600   -2.9370 n         1 MOL     -0.806969
    116 O18        -4.0820    1.3050   -2.3370 o         1 MOL     -0.573868
    117 H50        -0.8390    1.7760    1.1410 hn        1 MOL      0.225650
    118 H51        -2.5500    3.8920   -0.0200 h1        1 MOL     -0.002872
    119 H52        -1.8720    1.1120   -1.0940 hc        1 MOL      0.074342
    120 H53        -1.3620    2.6500   -1.5730 hc        1 MOL      0.074342
    121 H54        -2.6370    4.0070   -2.7630 hn        1 MOL      0.372416
    122 H55        -3.9870    3.2510   -3.6780 hn        1 MOL      0.372416
    123 N12        -4.8690    2.8270    0.2280 n         1 MOL     -0.113325
    124 C39        -6.2570    2.4870    0.6600 c3        1 MOL      0.073108
    125 C40        -6.5130    0.9660    0.7350 c         1 MOL      0.485059
    126 O19        -7.3480    0.5900    1.5410 o         1 MOL     -0.593709
    127 C41        -7.2370    3.3000   -0.2180 c3        1 MOL     -0.243198
    128 C42        -7.0340    3.2580   -1.7120 ca        1 MOL      0.266008
    129 C43        -6.4130    4.2790   -2.3940 ca        1 MOL     -0.312640
    130 C44        -7.5470    2.1140   -2.3490 ca        1 MOL     -0.312640
    131 C45        -6.3150    4.1660   -3.8180 ca        1 MOL     -0.126562
    132 C46        -7.4770    2.0300   -3.7810 ca        1 MOL     -0.126562
    133 C47        -6.8970    3.1080   -4.4820 ca        1 MOL      0.261434
    134 O20        -6.7490    3.1000   -5.8590 oh        1 MOL     -0.589680
    135 H56        -4.7510    3.1830   -0.7140 hn        1 MOL      0.054607
    136 H57        -6.3020    2.7890    1.7090 h1        1 MOL      0.062942
    137 H58        -7.0970    4.3530    0.0270 hc        1 MOL      0.072436
    138 H59        -8.2530    2.9800   -0.0310 hc        1 MOL      0.072436
    139 H60        -5.9780    5.0940   -1.8420 ha        1 MOL      0.157693
    140 H61        -7.9730    1.3250   -1.7500 ha        1 MOL      0.157693
    141 H62        -5.9670    5.0040   -4.3890 ha        1 MOL      0.098694
    142 H63        -7.9130    1.1630   -4.2540 ha        1 MOL      0.098694
    143 H64        -7.1920    2.3620   -6.2870 ho        1 MOL      0.428864
    144 N13        -5.8330    0.0400    0.0430 n         1 MOL      0.004874
    145 C48        -6.1060   -1.3850    0.1300 c3        1 MOL     -0.156651
    146 C49        -5.2840   -2.0470    1.2920 c         1 MOL      0.419759
    147 O21        -5.4720   -3.2200    1.6210 o         1 MOL     -0.536054
    148 C50        -6.0290   -2.0830   -1.2130 c3        1 MOL      0.011197
    149 C51        -6.9570   -1.4660   -2.2670 c3        1 MOL     -0.005678
    150 C52        -8.4020   -1.7430   -2.0510 c         1 MOL      0.644330
    151 O22        -9.1950   -0.9040   -2.4730 o         1 MOL     -0.706315
    152 O23        -8.7540   -2.7910   -1.5500 o         1 MOL     -0.706315
    153 H65        -5.2360    0.4160   -0.6860 hn        1 MOL      0.068780
    154 H66        -7.1550   -1.4100    0.4200 h1        1 MOL      0.150753
    155 H67        -6.2920   -3.1300   -1.0530 hc        1 MOL      0.002091
    156 H68        -5.0370   -2.0730   -1.6580 hc        1 MOL      0.002091
    157 H69        -6.6820   -1.9460   -3.2070 hc        1 MOL     -0.000250
    158 H70        -6.6360   -0.4670   -2.5560 hc        1 MOL     -0.000250
    159 N14        -4.3490   -1.3170    1.8990 n         1 MOL     -0.076358
    160 C53        -3.4660   -1.7950    2.9600 c3        1 MOL     -0.019773
    161 C54        -3.8860   -1.1550    4.3280 c         1 MOL      0.445753
    162 O24        -4.0470   -1.8660    5.2870 o         1 MOL     -0.545427
    163 C55        -2.0680   -1.3220    2.6280 c3        1 MOL     -0.007352
    164 C56        -1.5510   -1.9330    1.3130 c3        1 MOL      0.032139
    165 C57        -0.4370   -1.2230    0.7230 c         1 MOL      0.632889
    166 O25         0.4100   -1.8620    0.1050 o         1 MOL     -0.670340
    167 O26        -0.1260   -0.0490    0.9980 o         1 MOL     -0.670340
    168 H71        -4.2950   -0.3380    1.6450 hn        1 MOL      0.000937
    169 H72        -3.3930   -2.8720    3.0950 h1        1 MOL      0.062140
    170 H73        -1.3750   -1.5290    3.4390 hc        1 MOL     -0.001186
    171 H74        -2.0560   -0.2380    2.5240 hc        1 MOL     -0.001186
    172 H75        -2.2730   -2.0520    0.5090 hc        1 MOL      0.037416
    173 H76        -1.2370   -2.9440    1.5560 hc        1 MOL      0.037416
    174 N15        -4.1460    0.1840    4.3380 n         1 MOL     -0.080236
    175 C58        -4.7890    0.9390    5.3740 c3        1 MOL     -0.173182
    176 H77        -4.5490    0.5020    6.3430 h1        1 MOL      0.071038
    177 H78        -4.4390    1.9710    5.3430 h1        1 MOL      0.071038
    178 H79        -5.8690    0.9170    5.2240 h1        1 MOL      0.071038
    179 H80        -4.0540    0.6570    3.4420 hn        1 MOL      0.002318
    180 Ca1         2.4980   -0.3820    0.4330 Ca        1 MOL      1.722786
    181 O27         1.8770   -0.9940    2.9320 oh        1 MOL     -0.860898
    182 O28         1.3690    1.4480   -1.2410 oh        1 MOL     -0.860898
    183 H81         2.3180   -0.3840    3.5230 ho        1 MOL      0.409250
    184 H82         1.9500    2.1180   -1.6110 ho        1 MOL      0.409250
    185 H83         1.3850   -1.5770    3.5200 ho        1 MOL      0.409250
    186 H84         1.1700    0.8690   -1.9690 ho        1 MOL      0.409250
    187 O29         4.9500   -0.6630    1.5140 oh        1 MOL     -0.860898
    188 H85         4.8860   -0.3960    2.4330 ho        1 MOL      0.409250
    189 H86         5.6680   -1.2920    1.5020 ho        1 MOL      0.409250
@<TRIPOS>BOND
     1    1    2 1   
     2    1    4 1   
     3    1    5 1   
     4    1    6 1   
     5    2    3 2   
     6    2    7 1   
     7    7    8 1   
     8    7   15 1   
     9    8    9 1   
    10    8   11 1   
    11    8   16 1   
    12    9   10 2   
    13    9   19 1   
    14   11   12 1   
    15   11   17 1   
    16   11   18 1   
    17   12   13 1   
    18   12   14 1   
    19   19   20 1   
    20   19   27 1   
    21   20   21 1   
    22   20   23 1   
    23   20   28 1   
    24   21   22 2   
    25   21   38 1   
    26   23   24 1   
    27   23   25 1   
    28   23   29 1   
    29   24   26 1   
    30   24   30 1   
    31   24   31 1   
    32   25   32 1   
    33   25   33 1   
    34   25   34 1   
    35   26   35 1   
    36   26   36 1   
    37   26   37 1   
    38   38   39 1   
    39   38   46 1   
    40   39   40 1   
    41   39   42 1   
    42   39   47 1   
    43   40   41 2   
    44   40   50 1   
    45   42   43 1   
    46   42   48 1   
    47   42   49 1   
    48   43   44 1   
    49   43   45 1   
    50   50   51 1   
    51   50   54 1   
    52   51   52 1   
    53   51   55 1   
    54   51   56 1   
    55   52   53 2   
    56   52   57 1   
    57   57   58 1   
    58   57   65 1   
    59   58   59 1   
    60   58   61 1   
    61   58   66 1   
    62   59   60 2   
    63   59   69 1   
    64   61   62 1   
    65   61   67 1   
    66   61   68 1   
    67   62   63 1   
    68   62   64 1   
    69   69   70 1   
    70   69   73 1   
    71   70   71 1   
    72   70   74 1   
    73   70   75 1   
    74   71   72 2   
    75   71   76 1   
    76   76   77 1   
    77   76   85 1   
    78   77   78 1   
    79   77   80 1   
    80   77   86 1   
    81   78   79 2   
    82   78   93 1   
    83   80   81 1   
    84   80   87 1   
    85   80   88 1   
    86   81   82 1   
    87   81   89 1   
    88   81   90 1   
    89   82   83 1   
    90   82   84 2   
    91   83   91 1   
    92   83   92 1   
    93   93   94 1   
    94   93  100 1   
    95   94   95 1   
    96   94   97 1   
    97   94  101 1   
    98   95   96 2   
    99   95  109 1   
   100   97   98 1   
   101   97   99 1   
   102   97  102 1   
   103   98  103 1   
   104   98  104 1   
   105   98  105 1   
   106   99  106 1   
   107   99  107 1   
   108   99  108 1   
   109  109  110 1   
   110  109  117 1   
   111  110  111 1   
   112  110  113 1   
   113  110  118 1   
   114  111  112 2   
   115  111  123 1   
   116  113  114 1   
   117  113  119 1   
   118  113  120 1   
   119  114  115 1   
   120  114  116 2   
   121  115  121 1   
   122  115  122 1   
   123  123  124 1   
   124  123  135 1   
   125  124  125 1   
   126  124  127 1   
   127  124  136 1   
   128  125  126 2   
   129  125  144 1   
   130  127  128 1   
   131  127  137 1   
   132  127  138 1   
   133  128  129 ar  
   134  128  130 ar  
   135  129  131 ar  
   136  129  139 1   
   137  130  132 ar  
   138  130  140 1   
   139  131  133 ar  
   140  131  141 1   
   141  132  133 ar  
   142  132  142 1   
   143  133  134 1   
   144  134  143 1   
   145  144  145 1   
   146  144  153 1   
   147  145  146 1   
   148  145  148 1   
   149  145  154 1   
   150  146  147 2   
   151  146  159 1   
   152  148  149 1   
   153  148  155 1   
   154  148  156 1   
   155  149  150 1   
   156  149  157 1   
   157  149  158 1   
   158  150  151 1   
   159  150  152 1   
   160  159  160 1   
   161  159  168 1   
   162  160  161 1   
   163  160  163 1   
   164  160  169 1   
   165  161  162 2   
   166  161  174 1   
   167  163  164 1   
   168  163  170 1   
   169  163  171 1   
   170  164  165 1   
   171  164  172 1   
   172  164  173 1   
   173  165  166 1   
   174  165  167 1   
   175  174  175 1   
   176  174  179 1   
   177  175  176 1   
   178  175  177 1   
   179  175  178 1   
   180  181  183 1   
   181  181  185 1   
   182  182  184 1   
   183  182  186 1   
   184  187  188 1   
   185  187  189 1   
@<TRIPOS>SUBSTRUCTURE
     1 MOL         1 TEMP              0 ****  ****    0 ROOT
