@<TRIPOS>MOLECULE
MOL
  189   185     1     0     0
SMALL
resp


@<TRIPOS>ATOM
      1 C1         -0.1530   -3.7290    5.8020 c3        1 MOL     -0.295025
      2 C2          0.5490   -3.2880    4.5240 c         1 MOL      0.660994
      3 O1          0.8970   -2.0880    4.3420 o         1 MOL     -0.616106
      4 H1         -1.2080   -3.4610    5.7470 hc        1 MOL      0.079683
      5 H2         -0.0590   -4.8090    5.9150 hc        1 MOL      0.079683
      6 H3          0.3030   -3.2320    6.6580 hc        1 MOL      0.079683
      7 N1          0.6400   -4.1880    3.5460 n         1 MOL     -0.576989
      8 C3          1.3620   -4.0090    2.3330 c3        1 MOL      0.418691
      9 C4          0.8370   -5.0920    1.3250 c         1 MOL      0.265156
     10 O2          0.6640   -6.3090    1.8060 o         1 MOL     -0.574010
     11 C5          2.8860   -4.1530    2.5180 c3        1 MOL     -0.312686
     12 C6          3.7110   -3.7840    1.2540 c         1 MOL      0.752373
     13 O3          4.9250   -4.0140    1.2390 o         1 MOL     -0.660580
     14 O4          3.1800   -3.0460    0.3450 o         1 MOL     -0.660580
     15 H4          0.3920   -5.1530    3.7630 hn        1 MOL      0.300065
     16 H5          1.1200   -2.9980    1.9990 h1        1 MOL     -0.045087
     17 H6          3.0460   -5.1800    2.8590 hc        1 MOL      0.052053
     18 H7          3.1780   -3.4760    3.3270 hc        1 MOL      0.052053
     19 N2          0.7500   -4.6200    0.1130 n         1 MOL      0.014243
     20 C7          0.4940   -5.4080   -1.1090 c3        1 MOL     -0.126431
     21 C8          1.4470   -5.2070   -2.2870 c         1 MOL      0.386326
     22 O5          1.2170   -5.8260   -3.3840 o         1 MOL     -0.551214
     23 C9         -0.9990   -5.3420   -1.4770 c3        1 MOL      0.298886
     24 C10        -1.5410   -3.9640   -1.9130 c3        1 MOL      0.176861
     25 C11        -1.9070   -5.8830   -0.3220 c3        1 MOL     -0.429912
     26 C12        -2.9250   -4.0140   -2.6130 c3        1 MOL     -0.368134
     27 H8          0.6610   -3.6230   -0.0030 hn        1 MOL      0.147121
     28 H9          0.6830   -6.4520   -0.8720 h1        1 MOL      0.086483
     29 H10        -1.0300   -5.9690   -2.3630 hc        1 MOL     -0.064487
     30 H11        -0.8020   -3.4100   -2.4800 hc        1 MOL     -0.005656
     31 H12        -1.6300   -3.4110   -0.9820 hc        1 MOL     -0.005656
     32 H13        -2.8850   -6.0230   -0.7780 hc        1 MOL      0.097304
     33 H14        -1.5530   -6.8420    0.0550 hc        1 MOL      0.097304
     34 H15        -2.0430   -5.0450    0.3710 hc        1 MOL      0.097304
     35 H16        -3.6870   -4.4730   -1.9960 hc        1 MOL      0.074759
     36 H17        -3.2520   -3.0070   -2.8750 hc        1 MOL      0.074759
     37 H18        -2.6890   -4.5970   -3.5130 hc        1 MOL      0.074759
     38 N3          2.4440   -4.2330   -2.2390 n         1 MOL     -0.235661
     39 C13         3.3780   -3.8580   -3.4190 c3        1 MOL     -0.043480
     40 C14         4.7860   -3.5490   -2.9440 c         1 MOL      0.412682
     41 O6          5.6880   -3.5750   -3.8000 o         1 MOL     -0.597377
     42 C15         2.8000   -2.6540   -4.1550 c3        1 MOL     -0.074803
     43 C16         2.4630   -1.4940   -3.3030 c         1 MOL      0.693187
     44 O7          2.9320   -1.4320   -2.1280 o         1 MOL     -0.709043
     45 O8          1.6940   -0.5870   -3.8150 o         1 MOL     -0.709043
     46 H19         2.4900   -3.7680   -1.3370 hn        1 MOL      0.123307
     47 H20         3.4600   -4.7400   -4.0430 h1        1 MOL      0.107183
     48 H21         1.9730   -2.9630   -4.7960 hc        1 MOL      0.042546
     49 H22         3.4650   -2.2510   -4.9190 hc        1 MOL      0.042546
     50 N4          5.1300   -3.2930   -1.6870 n         1 MOL     -0.011931
     51 C17         6.4790   -3.0960   -1.2250 c3        1 MOL     -0.387026
     52 C18         7.0460   -1.6820   -1.4540 c         1 MOL      0.606816
     53 O9          8.2210   -1.5260   -1.2620 o         1 MOL     -0.625698
     54 H23         4.3580   -3.1440   -1.0530 hn        1 MOL      0.007440
     55 H24         7.0630   -3.7580   -1.8610 h1        1 MOL      0.159564
     56 H25         6.6100   -3.4670   -0.2100 h1        1 MOL      0.159564
     57 N5          6.3260   -0.6890   -1.9410 n         1 MOL     -0.293756
     58 C19         6.7780    0.6830   -2.2540 c3        1 MOL      0.001416
     59 C20         7.2740    1.5460   -1.0330 c         1 MOL      0.395257
     60 O10         7.7390    2.7110   -1.2360 o         1 MOL     -0.547643
     61 C21         5.6420    1.3950   -2.9880 c3        1 MOL     -0.267508
     62 C22         4.4380    1.7440   -2.1390 c         1 MOL      0.843958
     63 O11         4.2460    1.1610   -1.0720 o         1 MOL     -0.730498
     64 O12         3.6150    2.6250   -2.5340 o         1 MOL     -0.730498
     65 H26         5.4430   -0.9160   -2.3620 hn        1 MOL      0.261907
     66 H27         7.6700    0.6100   -2.8790 h1        1 MOL      0.086873
     67 H28         5.3670    0.8680   -3.9020 hc        1 MOL      0.070510
     68 H29         6.0440    2.3650   -3.2590 hc        1 MOL      0.070510
     69 N6          7.0830    1.1530    0.2220 n         1 MOL     -0.136105
     70 C23         7.3230    1.9510    1.3680 c3        1 MOL     -0.279028
     71 C24         6.4080    3.1580    1.5670 c         1 MOL      0.606154
     72 O13         6.7610    4.0800    2.2310 o         1 MOL     -0.610563
     73 H30         6.6200    0.2580    0.3030 hn        1 MOL      0.214434
     74 H31         8.3550    2.2830    1.2800 h1        1 MOL      0.109652
     75 H32         7.2100    1.3310    2.2540 h1        1 MOL      0.109652
     76 N7          5.2180    3.1510    0.9830 n         1 MOL     -0.341272
     77 C25         4.0660    4.0770    1.1960 c3        1 MOL      0.037630
     78 C26         2.7980    3.2270    1.3750 c         1 MOL      0.571289
     79 O14         2.8520    2.0430    1.1560 o         1 MOL     -0.626053
     80 C27         3.9860    5.0570    0.0320 c3        1 MOL     -0.126732
     81 C28         5.2570    5.9230   -0.1840 c3        1 MOL     -0.113693
     82 C29         4.9880    7.0930   -1.0820 c         1 MOL      0.723369
     83 N8          5.9840    7.7430   -1.6090 n         1 MOL     -0.835720
     84 O15         3.9000    7.5940   -1.2400 o         1 MOL     -0.584833
     85 H33         4.9480    2.3720    0.3990 hn        1 MOL      0.252634
     86 H34         4.1780    4.6160    2.1450 h1        1 MOL      0.042528
     87 H35         3.2200    5.7730    0.3350 hc        1 MOL      0.055029
     88 H36         3.6760    4.5220   -0.8610 hc        1 MOL      0.055029
     89 H37         6.0180    5.2730   -0.6100 hc        1 MOL      0.055967
     90 H38         5.6480    6.3990    0.7150 hc        1 MOL      0.055967
     91 H39         6.9540    7.5340   -1.4060 hn        1 MOL      0.347946
     92 H40         5.8140    8.5080   -2.2340 hn        1 MOL      0.347946
     93 N9          1.7170    3.7920    1.9070 n         1 MOL     -0.393403
     94 C30         0.4940    3.0640    2.3640 c3        1 MOL     -0.049435
     95 C31        -0.7180    3.4750    1.5420 c         1 MOL      0.415044
     96 O16        -1.0500    4.6190    1.4420 o         1 MOL     -0.568527
     97 C32         0.2570    3.2940    3.8970 c3        1 MOL      0.281145
     98 C33        -0.8130    2.2660    4.2320 c3        1 MOL     -0.277366
     99 C34         1.4020    3.0240    4.8670 c3        1 MOL     -0.277366
    100 H41         1.7920    4.7620    2.1900 hn        1 MOL      0.269978
    101 H42         0.6310    1.9790    2.2570 h1        1 MOL      0.097332
    102 H43        -0.1760    4.2490    4.1910 hc        1 MOL     -0.038556
    103 H44        -1.6510    2.3040    3.5390 hc        1 MOL      0.057545
    104 H45        -0.4050    1.2470    4.2030 hc        1 MOL      0.057545
    105 H46        -1.1480    2.4550    5.2480 hc        1 MOL      0.057545
    106 H47         2.2420    3.6600    4.6150 hc        1 MOL      0.057545
    107 H48         1.0530    3.0930    5.8910 hc        1 MOL      0.057545
    108 H49         1.7600    1.9920    4.7790 hc        1 MOL      0.057545
    109 N10        -1.3170    2.5580    0.7600 n         1 MOL     -0.091939
    110 C35        -2.3970    2.7200   -0.2200 c3        1 MOL      0.010388
    111 C36        -3.7170    2.5810    0.3860 c         1 MOL      0.160389
    112 O17        -3.7480    2.0160    1.4790 o         1 MOL     -0.240577
    113 C37        -2.1240    1.6570   -1.3310 c3        1 MOL     -0.373047
    114 C38        -3.1090    1.5430   -2.4640 c         1 MOL      0.797934
    115 N11        -3.2920    2.5570   -3.2840 n         1 MOL     -0.808653
    116 O18        -3.9980    0.7390   -2.4180 o         1 MOL     -0.576802
    117 H50        -0.9400    1.6310    0.8860 hn        1 MOL      0.158878
    118 H51        -2.2230    3.6150   -0.8260 h1        1 MOL      0.079570
    119 H52        -2.0740    0.6280   -0.9660 hc        1 MOL      0.131462
    120 H53        -1.1310    1.7810   -1.7610 hc        1 MOL      0.131462
    121 H54        -2.9380    3.4370   -2.9400 hn        1 MOL      0.331687
    122 H55        -3.9830    2.4570   -4.0160 hn        1 MOL      0.331687
    123 N12        -4.7870    2.9940   -0.2280 n         1 MOL     -0.068386
    124 C39        -6.0910    3.0560    0.4030 c3        1 MOL      0.129548
    125 C40        -6.5940    1.6270    0.7190 c         1 MOL      0.359658
    126 O19        -7.2190    1.4470    1.8190 o         1 MOL     -0.562536
    127 C41        -7.0540    3.8360   -0.4600 c3        1 MOL     -0.037485
    128 C42        -7.4190    3.2950   -1.8500 ca        1 MOL     -0.045037
    129 C43        -6.7940    3.8360   -2.9940 ca        1 MOL     -0.000341
    130 C44        -8.3730    2.3200   -1.9730 ca        1 MOL     -0.000341
    131 C45        -7.1370    3.4140   -4.2620 ca        1 MOL     -0.553259
    132 C46        -8.7200    1.8200   -3.2190 ca        1 MOL     -0.553259
    133 C47        -8.1110    2.3580   -4.3570 ca        1 MOL      0.608823
    134 O20        -8.4530    1.9080   -5.6000 oh        1 MOL     -0.482124
    135 H56        -4.6580    3.6070   -1.0150 hn        1 MOL      0.102361
    136 H57        -5.9570    3.6190    1.3210 h1        1 MOL      0.028669
    137 H58        -6.7220    4.8680   -0.6160 hc        1 MOL      0.006271
    138 H59        -7.9130    3.9040    0.2040 hc        1 MOL      0.006271
    139 H60        -6.0020    4.5530   -2.8640 ha        1 MOL      0.118936
    140 H61        -8.9080    2.0230   -1.0820 ha        1 MOL      0.118936
    141 H62        -6.5300    3.6580   -5.1150 ha        1 MOL      0.222016
    142 H63        -9.6120    1.2310   -3.3740 ha        1 MOL      0.222016
    143 H64        -7.9470    2.4870   -6.1790 ho        1 MOL      0.302264
    144 N13        -6.1170    0.5830   -0.0130 n         1 MOL      0.072584
    145 C48        -6.3980   -0.8820    0.3000 c3        1 MOL     -0.323708
    146 C49        -5.5600   -1.5060    1.4690 c         1 MOL      0.438628
    147 O21        -6.0760   -2.4090    2.1210 o         1 MOL     -0.486681
    148 C50        -6.2170   -1.6920   -0.9620 c3        1 MOL      0.072870
    149 C51        -7.3990   -1.6740   -1.9000 c3        1 MOL     -0.270227
    150 C52        -8.7340   -2.1410   -1.1700 c         1 MOL      0.670593
    151 O22        -8.7470   -3.1680   -0.4380 o         1 MOL     -0.705291
    152 O23        -9.7550   -1.4610   -1.3810 o         1 MOL     -0.705291
    153 H65        -5.6870    0.8230   -0.8920 hn        1 MOL      0.127794
    154 H66        -7.4400   -0.9740    0.6080 h1        1 MOL      0.202164
    155 H67        -5.9590   -2.7180   -0.7120 hc        1 MOL      0.028874
    156 H68        -5.3440   -1.2850   -1.4670 hc        1 MOL      0.028874
    157 H69        -7.3010   -2.4090   -2.7050 hc        1 MOL      0.055649
    158 H70        -7.5200   -0.6810   -2.3240 hc        1 MOL      0.055649
    159 N14        -4.4510   -0.8730    1.8420 n         1 MOL     -0.176820
    160 C53        -3.6150   -1.2440    2.9600 c3        1 MOL      0.032046
    161 C54        -3.9480   -0.5290    4.2520 c         1 MOL      0.381598
    162 O24        -3.9400   -1.0640    5.3850 o         1 MOL     -0.559255
    163 C55        -2.1380   -1.0580    2.5250 c3        1 MOL     -0.040045
    164 C56        -1.6760   -1.7920    1.2720 c3        1 MOL      0.032305
    165 C57        -0.4240   -1.1740    0.6450 c         1 MOL      0.643918
    166 O25         0.4240   -1.8550    0.0100 o         1 MOL     -0.680649
    167 O26        -0.0430   -0.0120    0.8560 o         1 MOL     -0.680649
    168 H71        -4.2240   -0.0180    1.3680 hn        1 MOL      0.095990
    169 H72        -3.8350   -2.3000    3.1390 h1        1 MOL      0.053982
    170 H73        -1.4990   -1.3600    3.3620 hc        1 MOL      0.048081
    171 H74        -2.0690    0.0060    2.3080 hc        1 MOL      0.048081
    172 H75        -2.3990   -1.7790    0.4550 hc        1 MOL     -0.022162
    173 H76        -1.5330   -2.8600    1.4380 hc        1 MOL     -0.022162
    174 N15        -4.3600    0.7340    4.1090 n         1 MOL      0.016068
    175 C58        -4.6210    1.7030    5.1880 c3        1 MOL     -0.229208
    176 H77        -5.6950    1.8600    5.2830 h1        1 MOL      0.086336
    177 H78        -4.2260    1.3160    6.1270 h1        1 MOL      0.086336
    178 H79        -4.1350    2.6500    4.9520 h1        1 MOL      0.086336
    179 H80        -4.2610    1.0350    3.1470 hn        1 MOL     -0.017444
    180 Ca1         2.6300   -0.4170    0.1690 Ca        1 MOL      1.771972
    181 O27         2.5300   -0.7120    2.8500 oh        1 MOL     -0.860056
    182 H81         1.8740   -1.2060    3.3470 ho        1 MOL      0.411160
    183 H82         2.9170   -0.1160    3.4810 ho        1 MOL      0.411160
    184 O28         5.3280   -1.0870    1.2430 oh        1 MOL     -0.860056
    185 H83         5.3820   -1.0200    2.1920 ho        1 MOL      0.411160
    186 H84         5.4540   -2.0220    1.0550 ho        1 MOL      0.411160
    187 O29         1.3910    1.0700   -1.6720 oh        1 MOL     -0.860056
    188 H85         2.0930    1.7050   -1.8220 ho        1 MOL      0.411160
    189 H86         1.4290    0.4950   -2.4410 ho        1 MOL      0.411160
@<TRIPOS>BOND
     1    1    2 1   
     2    1    4 1   
     3    1    5 1   
     4    1    6 1   
     5    2    3 2   
     6    2    7 1   
     7    7    8 1   
     8    7   15 1   
     9    8    9 1   
    10    8   11 1   
    11    8   16 1   
    12    9   10 2   
    13    9   19 1   
    14   11   12 1   
    15   11   17 1   
    16   11   18 1   
    17   12   13 1   
    18   12   14 1   
    19   19   20 1   
    20   19   27 1   
    21   20   21 1   
    22   20   23 1   
    23   20   28 1   
    24   21   22 2   
    25   21   38 1   
    26   23   24 1   
    27   23   25 1   
    28   23   29 1   
    29   24   26 1   
    30   24   30 1   
    31   24   31 1   
    32   25   32 1   
    33   25   33 1   
    34   25   34 1   
    35   26   35 1   
    36   26   36 1   
    37   26   37 1   
    38   38   39 1   
    39   38   46 1   
    40   39   40 1   
    41   39   42 1   
    42   39   47 1   
    43   40   41 2   
    44   40   50 1   
    45   42   43 1   
    46   42   48 1   
    47   42   49 1   
    48   43   44 1   
    49   43   45 1   
    50   50   51 1   
    51   50   54 1   
    52   51   52 1   
    53   51   55 1   
    54   51   56 1   
    55   52   53 2   
    56   52   57 1   
    57   57   58 1   
    58   57   65 1   
    59   58   59 1   
    60   58   61 1   
    61   58   66 1   
    62   59   60 2   
    63   59   69 1   
    64   61   62 1   
    65   61   67 1   
    66   61   68 1   
    67   62   63 1   
    68   62   64 1   
    69   69   70 1   
    70   69   73 1   
    71   70   71 1   
    72   70   74 1   
    73   70   75 1   
    74   71   72 2   
    75   71   76 1   
    76   76   77 1   
    77   76   85 1   
    78   77   78 1   
    79   77   80 1   
    80   77   86 1   
    81   78   79 2   
    82   78   93 1   
    83   80   81 1   
    84   80   87 1   
    85   80   88 1   
    86   81   82 1   
    87   81   89 1   
    88   81   90 1   
    89   82   83 1   
    90   82   84 2   
    91   83   91 1   
    92   83   92 1   
    93   93   94 1   
    94   93  100 1   
    95   94   95 1   
    96   94   97 1   
    97   94  101 1   
    98   95   96 2   
    99   95  109 1   
   100   97   98 1   
   101   97   99 1   
   102   97  102 1   
   103   98  103 1   
   104   98  104 1   
   105   98  105 1   
   106   99  106 1   
   107   99  107 1   
   108   99  108 1   
   109  109  110 1   
   110  109  117 1   
   111  110  111 1   
   112  110  113 1   
   113  110  118 1   
   114  111  112 2   
   115  111  123 1   
   116  113  114 1   
   117  113  119 1   
   118  113  120 1   
   119  114  115 1   
   120  114  116 2   
   121  115  121 1   
   122  115  122 1   
   123  123  124 1   
   124  123  135 1   
   125  124  125 1   
   126  124  127 1   
   127  124  136 1   
   128  125  126 2   
   129  125  144 1   
   130  127  128 1   
   131  127  137 1   
   132  127  138 1   
   133  128  129 ar  
   134  128  130 ar  
   135  129  131 ar  
   136  129  139 1   
   137  130  132 ar  
   138  130  140 1   
   139  131  133 ar  
   140  131  141 1   
   141  132  133 ar  
   142  132  142 1   
   143  133  134 1   
   144  134  143 1   
   145  144  145 1   
   146  144  153 1   
   147  145  146 1   
   148  145  148 1   
   149  145  154 1   
   150  146  147 2   
   151  146  159 1   
   152  148  149 1   
   153  148  155 1   
   154  148  156 1   
   155  149  150 1   
   156  149  157 1   
   157  149  158 1   
   158  150  151 1   
   159  150  152 1   
   160  159  160 1   
   161  159  168 1   
   162  160  161 1   
   163  160  163 1   
   164  160  169 1   
   165  161  162 2   
   166  161  174 1   
   167  163  164 1   
   168  163  170 1   
   169  163  171 1   
   170  164  165 1   
   171  164  172 1   
   172  164  173 1   
   173  165  166 1   
   174  165  167 1   
   175  174  175 1   
   176  174  179 1   
   177  175  176 1   
   178  175  177 1   
   179  175  178 1   
   180  181  182 1   
   181  181  183 1   
   182  184  185 1   
   183  184  186 1   
   184  187  188 1   
   185  187  189 1   
@<TRIPOS>SUBSTRUCTURE
     1 MOL         1 TEMP              0 ****  ****    0 ROOT
