@<TRIPOS>MOLECULE
MOL
  176   174     1     0     0
SMALL
resp


@<TRIPOS>ATOM
      1 C1          0.6220    4.0140    6.5720 c3        1 MOL     -0.271648
      2 C2          0.5560    3.4290    5.1250 c         1 MOL      0.732686
      3 O1          1.5920    3.3880    4.4400 o         1 MOL     -0.576564
      4 H1          1.5810    4.5110    6.7190 hc        1 MOL      0.065471
      5 H2         -0.1840    4.7340    6.7110 hc        1 MOL      0.065471
      6 H3          0.5180    3.2060    7.2960 hc        1 MOL      0.065471
      7 N1         -0.6450    3.0910    4.6630 n         1 MOL     -0.608685
      8 C3         -0.8830    2.6750    3.2600 c3        1 MOL     -0.070993
      9 C4         -0.7760    3.8860    2.3690 c         1 MOL      0.746661
     10 O2         -1.2440    4.9650    2.7080 o         1 MOL     -0.589040
     11 C5         -2.2590    1.9640    3.1010 c3        1 MOL     -0.004130
     12 C6         -2.4720    1.2750    1.7260 c         1 MOL      0.521324
     13 O3         -3.2230    0.3180    1.5680 o         1 MOL     -0.621756
     14 O4         -1.9860    1.8700    0.6700 o         1 MOL     -0.621756
     15 H4         -1.5010    3.1060    5.2060 hn        1 MOL      0.334743
     16 H5         -0.0960    1.9440    3.0540 h1        1 MOL      0.050651
     17 H6         -3.0810    2.6690    3.2080 hc        1 MOL      0.026454
     18 H7         -2.2660    1.2200    3.8940 hc        1 MOL      0.026454
     19 N2         -0.2310    3.7990    1.1700 n         1 MOL     -0.353334
     20 C7          0.0500    4.8810    0.2050 c3        1 MOL     -0.440700
     21 C8         -1.1410    5.3340   -0.6210 c         1 MOL      0.717989
     22 O5         -1.2160    6.4460   -1.1440 o         1 MOL     -0.596009
     23 C9          1.2260    4.4260   -0.7890 c3        1 MOL      0.324681
     24 C10         1.7410    5.5420   -1.7140 c3        1 MOL     -0.418106
     25 C11         3.0040    5.1080   -2.4450 c3        1 MOL      0.111253
     26 C12         3.2460    6.2650   -3.3580 c3        1 MOL      0.049092
     27 N3          4.2690    6.0200   -4.4230 n4        1 MOL     -0.487955
     28 H8         -0.1090    2.8530    0.8360 hn        1 MOL      0.193391
     29 H9          0.3910    5.7340    0.7900 h1        1 MOL      0.185289
     30 H10         0.8140    3.6130   -1.3920 hc        1 MOL      0.054339
     31 H11         2.0220    4.0390   -0.1540 hc        1 MOL      0.054339
     32 H12         2.0190    6.4080   -1.1040 hc        1 MOL      0.103076
     33 H13         0.9640    5.8040   -2.4350 hc        1 MOL      0.103076
     34 H14         2.7120    4.1910   -2.9540 hc        1 MOL      0.025672
     35 H15         3.7930    4.8800   -1.7330 hc        1 MOL      0.025672
     36 H16         3.4010    7.1940   -2.8110 hx        1 MOL      0.097255
     37 H17         2.4090    6.3630   -4.0510 hx        1 MOL      0.097255
     38 H18         4.4720    6.8610   -4.9540 hn        1 MOL      0.352681
     39 H19         5.1370    5.6940   -4.0300 hn        1 MOL      0.352681
     40 H20         3.9020    5.3740   -5.1110 hn        1 MOL      0.352681
     41 N4         -2.1140    4.4000   -0.8220 n         1 MOL     -0.493811
     42 C13        -3.2910    4.5270   -1.7310 c3        1 MOL      0.126053
     43 C14        -4.5910    4.1310   -1.0180 c         1 MOL      0.435886
     44 O6         -5.5970    4.6360   -1.3740 o         1 MOL     -0.526102
     45 C15        -3.0130    3.6850   -2.9580 c3        1 MOL     -0.273502
     46 C16        -2.6000    2.3490   -2.5140 c         1 MOL      0.763334
     47 O7         -3.4300    1.5030   -2.1210 o         1 MOL     -0.743246
     48 O8         -1.3770    2.0870   -2.5680 o         1 MOL     -0.743246
     49 H21        -1.9040    3.4780   -0.4740 hn        1 MOL      0.294186
     50 H22        -3.4110    5.5640   -2.0320 h1        1 MOL      0.089207
     51 H23        -2.3140    4.2010   -3.6220 hc        1 MOL      0.069678
     52 H24        -3.9290    3.7010   -3.5500 hc        1 MOL      0.069678
     53 N5         -4.5240    3.3080    0.0150 n         1 MOL     -0.123056
     54 C17        -5.6800    2.8980    0.8110 c3        1 MOL     -0.141374
     55 C18        -6.5940    1.8420    0.1780 c         1 MOL      0.508023
     56 O9         -7.8000    1.9750    0.2740 o         1 MOL     -0.553016
     57 H25        -3.5900    2.9680    0.1700 hn        1 MOL      0.064089
     58 H26        -6.3330    3.7190    1.1290 h1        1 MOL      0.094687
     59 H27        -5.1980    2.3920    1.6480 h1        1 MOL      0.094687
     60 N6         -6.0580    0.7680   -0.4500 n         1 MOL     -0.010583
     61 C19        -6.8150   -0.2210   -1.1380 c3        1 MOL     -0.173156
     62 C20        -7.1220   -1.5660   -0.4230 c         1 MOL      0.477085
     63 O10        -7.6910   -2.4710   -1.0470 o         1 MOL     -0.504753
     64 C21        -6.0130   -0.5060   -2.4480 c3        1 MOL     -0.150033
     65 C22        -4.8680   -1.4770   -2.1860 c         1 MOL      0.537664
     66 N7         -4.4310   -2.2230   -3.1440 n         1 MOL     -0.574746
     67 O11        -4.1250   -1.3580   -1.2160 o         1 MOL     -0.472338
     68 H28        -5.0550    0.6660   -0.5380 hn        1 MOL      0.027768
     69 H29        -7.7410    0.3310   -1.3030 h1        1 MOL      0.141439
     70 H30        -5.6270    0.4300   -2.8720 hc        1 MOL      0.081303
     71 H31        -6.6360   -0.9740   -3.2150 hc        1 MOL      0.081303
     72 H32        -4.8010   -2.2130   -4.0830 hn        1 MOL      0.303920
     73 H33        -3.5770   -2.7330   -2.9550 hn        1 MOL      0.303920
     74 N8         -6.5860   -1.7170    0.8310 n         1 MOL     -0.433757
     75 C23        -6.5870   -2.9980    1.5510 c3        1 MOL      0.141401
     76 C24        -5.3310   -3.6470    2.0760 c         1 MOL      0.347727
     77 O12        -5.3880   -4.4040    3.0880 o         1 MOL     -0.548487
     78 H34        -6.0760   -0.9190    1.1820 hn        1 MOL      0.246581
     79 H35        -7.1860   -3.6900    0.9660 h1        1 MOL      0.052803
     80 H36        -7.2160   -2.9140    2.4360 h1        1 MOL      0.052803
     81 N9         -4.2490   -3.4310    1.4010 n         1 MOL     -0.169211
     82 C25        -2.9900   -4.0580    1.7490 c3        1 MOL      0.028831
     83 C26        -1.8040   -3.1220    1.3610 c         1 MOL      0.518374
     84 O13        -1.9280   -2.2200    0.5490 o         1 MOL     -0.715904
     85 C27        -2.8700   -5.4580    0.9980 c3        1 MOL     -0.285117
     86 C28        -2.5300   -5.2780   -0.4820 ca        1 MOL      0.076302
     87 C29        -1.1810   -4.9990   -0.9610 ca        1 MOL     -0.126569
     88 C30        -3.5780   -5.1630   -1.3940 ca        1 MOL     -0.126569
     89 C31        -1.0210   -4.8910   -2.3500 ca        1 MOL     -0.264842
     90 C32        -3.3760   -5.0640   -2.8020 ca        1 MOL     -0.264842
     91 C33        -2.0990   -4.8180   -3.2750 ca        1 MOL      0.309003
     92 O14        -1.9930   -4.6090   -4.6070 oh        1 MOL     -0.481708
     93 H37        -4.2470   -2.8140    0.6140 hn        1 MOL      0.195451
     94 H38        -2.9480   -4.2350    2.8210 h1        1 MOL      0.100780
     95 H39        -3.7720   -6.0590    1.0800 hc        1 MOL      0.121772
     96 H40        -2.0730   -6.0780    1.4030 hc        1 MOL      0.121772
     97 H41        -0.2730   -4.8210   -0.4000 ha        1 MOL      0.129918
     98 H42        -4.5910   -5.3230   -1.0520 ha        1 MOL      0.129918
     99 H43         0.0010   -4.7580   -2.6620 ha        1 MOL      0.147739
    100 H44        -4.2020   -5.0980   -3.4890 ha        1 MOL      0.147739
    101 H45        -1.1090   -4.3020   -4.7960 ho        1 MOL      0.352393
    102 N10        -0.6280   -3.4410    1.8470 n         1 MOL     -0.351240
    103 C34         0.5740   -2.6080    1.5920 c3        1 MOL     -0.014985
    104 C35         1.6470   -3.4810    1.0180 c         1 MOL      0.400536
    105 O15         1.6760   -4.6780    1.3880 o         1 MOL     -0.523478
    106 C36         0.9010   -1.8060    2.8510 c3        1 MOL      0.111921
    107 C37         1.2500   -2.6860    4.0920 c3        1 MOL     -0.140562
    108 C38        -0.1830   -0.8150    3.1560 c3        1 MOL      0.059069
    109 C39         2.1650   -1.9290    5.0230 c3        1 MOL     -0.025011
    110 H46        -0.6110   -4.1390    2.5750 hn        1 MOL      0.267234
    111 H47         0.3250   -1.9240    0.7870 h1        1 MOL      0.224418
    112 H48         1.7760   -1.1870    2.6610 hc        1 MOL     -0.008726
    113 H49         1.8090   -3.5600    3.7390 hc        1 MOL      0.043118
    114 H50         0.3350   -3.1170    4.4920 hc        1 MOL      0.043118
    115 H51        -0.5140   -0.2220    2.3040 hc        1 MOL     -0.010722
    116 H52        -0.9490   -1.5290    3.4740 hc        1 MOL     -0.010722
    117 H53         0.0380   -0.3260    4.1020 hc        1 MOL     -0.010722
    118 H54         3.1630   -1.7880    4.6040 hc        1 MOL      0.017806
    119 H55         1.7510   -0.9450    5.2330 hc        1 MOL      0.017806
    120 H56         2.3500   -2.4150    5.9720 hc        1 MOL      0.017806
    121 N11         2.5950   -2.8830    0.2360 n         1 MOL     -0.305092
    122 C40         3.8500   -3.5580   -0.2640 c3        1 MOL      0.240723
    123 C41         5.2060   -3.2050    0.3580 c         1 MOL      0.437260
    124 O16         5.2510   -2.2660    1.1420 o         1 MOL     -0.444157
    125 C42         3.9800   -3.3950   -1.8120 c3        1 MOL     -0.077883
    126 O17         4.4860   -2.0610   -2.1600 oh        1 MOL     -0.263748
    127 H57         2.4440   -1.9150    0.0010 hn        1 MOL      0.171791
    128 H58         3.8010   -4.6380   -0.1570 h1        1 MOL      0.022034
    129 H59         3.0060   -3.5060   -2.2940 h1        1 MOL      0.048252
    130 H60         4.6480   -4.1640   -2.2030 h1        1 MOL      0.048252
    131 H61         4.4030   -1.9940   -3.1140 ho        1 MOL      0.323369
    132 N12         6.2880   -3.7560   -0.1390 n         1 MOL     -0.455564
    133 C43         7.6710   -3.3030    0.0610 c3        1 MOL      0.163564
    134 C44         8.0080   -1.8020   -0.4840 c         1 MOL      0.323263
    135 O18         8.8170   -1.0960    0.1130 o         1 MOL     -0.481467
    136 C45         8.5480   -4.3870   -0.3870 c3        1 MOL     -0.334027
    137 H62         6.2420   -4.5310   -0.7830 hn        1 MOL      0.288087
    138 H63         7.8140   -3.2810    1.1400 h1        1 MOL      0.105851
    139 H64         8.3880   -5.2500    0.2520 hc        1 MOL      0.101877
    140 H65         8.4690   -4.7830   -1.3970 hc        1 MOL      0.101877
    141 H66         9.5840   -4.2050   -0.0990 hc        1 MOL      0.101877
    142 N13         7.4430   -1.4430   -1.6000 n         1 MOL     -0.186132
    143 C46         7.5430   -0.0810   -2.1860 c3        1 MOL      0.019274
    144 C47         6.6600    0.9840   -1.4750 c         1 MOL      0.390830
    145 O19         7.0100    2.1590   -1.3740 o         1 MOL     -0.514307
    146 C48         7.1700   -0.1580   -3.7230 c3        1 MOL     -0.261418
    147 H67         6.8300   -2.0710   -2.0960 hn        1 MOL      0.164545
    148 H68         8.5610    0.2560   -2.0190 h1        1 MOL      0.124688
    149 H69         7.7610   -0.8880   -4.2950 hc        1 MOL      0.076055
    150 H70         6.1220   -0.4000   -3.8810 hc        1 MOL      0.076055
    151 H71         7.2820    0.8280   -4.1490 hc        1 MOL      0.076055
    152 N14         5.5180    0.5420   -0.9610 n         1 MOL     -0.020248
    153 C49         4.7950    1.3680    0.0210 c3        1 MOL     -0.224351
    154 C50         5.4840    1.4820    1.3940 c         1 MOL      0.595533
    155 O20         5.5450    2.5710    1.9450 o         1 MOL     -0.535498
    156 C51         3.3260    1.0140    0.1890 c3        1 MOL      0.179948
    157 C52         2.4880    0.9460   -1.0200 c3        1 MOL      0.104215
    158 C53         1.1800    0.2830   -0.7120 c         1 MOL      0.696509
    159 O21         0.8980   -0.8370   -1.1620 o         1 MOL     -0.766503
    160 O22         0.3850    0.7810    0.0430 o         1 MOL     -0.766503
    161 H72         5.2270   -0.4230   -1.0220 hn        1 MOL     -0.103989
    162 H73         4.8240    2.3820   -0.3950 h1        1 MOL      0.068860
    163 H74         2.8700    1.7090    0.9010 hc        1 MOL     -0.022794
    164 H75         3.3670    0.0130    0.6350 hc        1 MOL     -0.022794
    165 H76         3.0220    0.2580   -1.6810 hc        1 MOL     -0.107838
    166 H77         2.4430    1.9360   -1.4580 hc        1 MOL     -0.107838
    167 N15         6.0590    0.3810    1.9290 n         1 MOL     -0.239078
    168 C54         6.6520    0.5170    3.2990 c3        1 MOL     -0.234303
    169 H78         7.2500    1.4270    3.3460 h1        1 MOL      0.104680
    170 H79         5.8530    0.5690    4.0370 h1        1 MOL      0.104680
    171 H80         7.2860   -0.3450    3.5080 h1        1 MOL      0.104680
    172 H81         5.9180   -0.5270    1.5020 hn        1 MOL      0.213864
    173 Ca1        -1.8270   -0.1170   -0.8520 Ca        1 MOL      1.796241
    174 O23        -1.5380   -1.1210   -3.1400 oh        1 MOL     -0.961770
    175 H82        -1.9990   -1.0820   -3.9760 ho        1 MOL      0.447736
    176 H83        -0.6380   -1.3580   -3.3810 ho        1 MOL      0.447736
@<TRIPOS>BOND
     1    1    2 1   
     2    1    4 1   
     3    1    5 1   
     4    1    6 1   
     5    2    3 2   
     6    2    7 1   
     7    7    8 1   
     8    7   15 1   
     9    8    9 1   
    10    8   11 1   
    11    8   16 1   
    12    9   10 2   
    13    9   19 1   
    14   11   12 1   
    15   11   17 1   
    16   11   18 1   
    17   12   13 1   
    18   12   14 1   
    19   19   20 1   
    20   19   28 1   
    21   20   21 1   
    22   20   23 1   
    23   20   29 1   
    24   21   22 2   
    25   21   41 1   
    26   23   24 1   
    27   23   30 1   
    28   23   31 1   
    29   24   25 1   
    30   24   32 1   
    31   24   33 1   
    32   25   26 1   
    33   25   34 1   
    34   25   35 1   
    35   26   27 1   
    36   26   36 1   
    37   26   37 1   
    38   27   38 1   
    39   27   39 1   
    40   27   40 1   
    41   41   42 1   
    42   41   49 1   
    43   42   43 1   
    44   42   45 1   
    45   42   50 1   
    46   43   44 2   
    47   43   53 1   
    48   45   46 1   
    49   45   51 1   
    50   45   52 1   
    51   46   47 1   
    52   46   48 1   
    53   53   54 1   
    54   53   57 1   
    55   54   55 1   
    56   54   58 1   
    57   54   59 1   
    58   55   56 2   
    59   55   60 1   
    60   60   61 1   
    61   60   68 1   
    62   61   62 1   
    63   61   64 1   
    64   61   69 1   
    65   62   63 2   
    66   62   74 1   
    67   64   65 1   
    68   64   70 1   
    69   64   71 1   
    70   65   66 1   
    71   65   67 2   
    72   66   72 1   
    73   66   73 1   
    74   74   75 1   
    75   74   78 1   
    76   75   76 1   
    77   75   79 1   
    78   75   80 1   
    79   76   77 2   
    80   76   81 1   
    81   81   82 1   
    82   81   93 1   
    83   82   83 1   
    84   82   85 1   
    85   82   94 1   
    86   83   84 2   
    87   83  102 1   
    88   85   86 1   
    89   85   95 1   
    90   85   96 1   
    91   86   87 ar  
    92   86   88 ar  
    93   87   89 ar  
    94   87   97 1   
    95   88   90 ar  
    96   88   98 1   
    97   89   91 ar  
    98   89   99 1   
    99   90   91 ar  
   100   90  100 1   
   101   91   92 1   
   102   92  101 1   
   103  102  103 1   
   104  102  110 1   
   105  103  104 1   
   106  103  106 1   
   107  103  111 1   
   108  104  105 2   
   109  104  121 1   
   110  106  107 1   
   111  106  108 1   
   112  106  112 1   
   113  107  109 1   
   114  107  113 1   
   115  107  114 1   
   116  108  115 1   
   117  108  116 1   
   118  108  117 1   
   119  109  118 1   
   120  109  119 1   
   121  109  120 1   
   122  121  122 1   
   123  121  127 1   
   124  122  123 1   
   125  122  125 1   
   126  122  128 1   
   127  123  124 2   
   128  123  132 1   
   129  125  126 1   
   130  125  129 1   
   131  125  130 1   
   132  126  131 1   
   133  132  133 1   
   134  132  137 1   
   135  133  134 1   
   136  133  136 1   
   137  133  138 1   
   138  134  135 2   
   139  134  142 1   
   140  136  139 1   
   141  136  140 1   
   142  136  141 1   
   143  142  143 1   
   144  142  147 1   
   145  143  144 1   
   146  143  146 1   
   147  143  148 1   
   148  144  145 2   
   149  144  152 1   
   150  146  149 1   
   151  146  150 1   
   152  146  151 1   
   153  152  153 1   
   154  152  161 1   
   155  153  154 1   
   156  153  156 1   
   157  153  162 1   
   158  154  155 2   
   159  154  167 1   
   160  156  157 1   
   161  156  163 1   
   162  156  164 1   
   163  157  158 1   
   164  157  165 1   
   165  157  166 1   
   166  158  159 1   
   167  158  160 1   
   168  167  168 1   
   169  167  172 1   
   170  168  169 1   
   171  168  170 1   
   172  168  171 1   
   173  174  175 1   
   174  174  176 1   
@<TRIPOS>SUBSTRUCTURE
     1 MOL         1 TEMP              0 ****  ****    0 ROOT
