@<TRIPOS>MOLECULE
MOL
  175   173     1     0     0
SMALL
resp


@<TRIPOS>ATOM
      1 C1         -0.4870    3.8400    5.9930 c3        1 MOL     -0.321769
      2 C2         -0.6610    3.2800    4.5290 c         1 MOL      0.688980
      3 O1          0.1670    3.5660    3.6450 o         1 MOL     -0.581216
      4 H1         -1.4680    4.0000    6.4400 hc        1 MOL      0.076919
      5 H2          0.0720    3.1220    6.5940 hc        1 MOL      0.076919
      6 H3          0.0550    4.7850    5.9590 hc        1 MOL      0.076919
      7 N1         -1.6980    2.5240    4.2740 n         1 MOL     -0.631482
      8 C3         -2.0850    2.1800    2.9220 c3        1 MOL      0.441599
      9 C4         -2.5790    3.4180    2.1260 c         1 MOL      0.546670
     10 O2         -3.5180    4.0530    2.5880 o         1 MOL     -0.603107
     11 C5         -3.2440    1.1720    2.8800 c3        1 MOL     -0.403680
     12 C6         -3.8930    0.7370    1.4920 c         1 MOL      0.808933
     13 O3         -3.2820    0.9820    0.4460 o         1 MOL     -0.691038
     14 O4         -4.9120    0.0440    1.4730 o         1 MOL     -0.691038
     15 H4         -2.3950    2.3340    4.9760 hn        1 MOL      0.318614
     16 H5         -1.3000    1.6980    2.3520 h1        1 MOL     -0.052753
     17 H6         -4.0020    1.5200    3.5850 hc        1 MOL      0.062982
     18 H7         -2.7960    0.2380    3.2350 hc        1 MOL      0.062982
     19 N2         -2.0040    3.7120    0.9480 n         1 MOL     -0.475874
     20 C7         -2.0240    5.0680    0.3700 c3        1 MOL      0.177056
     21 C8         -2.7190    5.0660   -0.9560 c         1 MOL      0.384594
     22 O5         -3.1640    6.1550   -1.3280 o         1 MOL     -0.569655
     23 C9         -0.5840    5.6300    0.1800 c3        1 MOL     -0.225542
     24 H8         -1.3320    3.0480    0.5790 hn        1 MOL      0.303158
     25 H9         -2.5500    5.8170    0.9560 h1        1 MOL      0.063522
     26 H10        -0.0780    4.9160   -0.4730 hc        1 MOL      0.058731
     27 H11        -0.6380    6.6700   -0.1450 hc        1 MOL      0.058731
     28 H12         0.0150    5.5720    1.0830 hc        1 MOL      0.058731
     29 N3         -2.9240    3.9000   -1.6130 n         1 MOL     -0.106042
     30 C10        -3.9160    3.8270   -2.6760 c3        1 MOL     -0.085746
     31 C11        -5.2460    3.0920   -2.2340 c         1 MOL      0.483965
     32 O6         -6.2200    3.0970   -2.9810 o         1 MOL     -0.558318
     33 C12        -3.2780    3.2240   -3.9520 c3        1 MOL     -0.072881
     34 C13        -2.6910    1.8150   -3.8540 c         1 MOL      0.739195
     35 O7         -2.8430    1.1300   -2.7590 o         1 MOL     -0.719957
     36 O8         -2.0630    1.3710   -4.8230 o         1 MOL     -0.719957
     37 H13        -2.5600    3.0230   -1.2870 hn        1 MOL      0.091989
     38 H14        -4.2460    4.8470   -2.8900 h1        1 MOL      0.092215
     39 H15        -2.5640    3.9480   -4.3490 hc        1 MOL      0.018211
     40 H16        -4.0440    3.1460   -4.7270 hc        1 MOL      0.018211
     41 N4         -5.3660    2.5930   -0.9990 n         1 MOL     -0.176488
     42 C14        -6.6090    2.4190   -0.2710 c3        1 MOL     -0.363157
     43 C15        -7.2330    1.1310   -0.6250 c         1 MOL      0.601639
     44 O9         -8.4530    1.0000   -0.5470 o         1 MOL     -0.590881
     45 H17        -4.5160    2.4000   -0.4800 hn        1 MOL      0.200000
     46 H18        -7.3290    3.1360   -0.6680 h1        1 MOL      0.155038
     47 H19        -6.4660    2.5720    0.7990 h1        1 MOL      0.155038
     48 N5         -6.4400    0.1440   -1.2000 n         1 MOL     -0.146640
     49 C16        -7.0170   -1.1180   -1.7400 c3        1 MOL     -0.185862
     50 C17        -7.1720   -2.2010   -0.6680 c         1 MOL      0.555620
     51 O10        -7.8060   -3.2150   -0.9140 o         1 MOL     -0.585120
     52 C18        -6.1400   -1.5780   -2.9560 c3        1 MOL     -0.009479
     53 C19        -4.7590   -2.2010   -2.5700 c         1 MOL      0.364516
     54 N6         -4.2270   -3.2150   -3.1940 n         1 MOL     -0.529987
     55 O11        -4.1690   -1.8480   -1.4750 o         1 MOL     -0.496381
     56 H20        -5.4560    0.3110   -1.3150 hn        1 MOL      0.116198
     57 H21        -8.0310   -0.9190   -2.0870 h1        1 MOL      0.116542
     58 H22        -5.9750   -0.6580   -3.5290 hc        1 MOL      0.050606
     59 H23        -6.6180   -2.2780   -3.6360 hc        1 MOL      0.050606
     60 H24        -4.6890   -3.6850   -3.9640 hn        1 MOL      0.317750
     61 H25        -3.3320   -3.4800   -2.8260 hn        1 MOL      0.317750
     62 N7         -6.5760   -1.9020    0.5230 n         1 MOL     -0.243346
     63 C20        -6.6500   -2.7700    1.6920 c3        1 MOL     -0.037346
     64 C21        -5.3610   -3.5220    2.0060 c         1 MOL      0.508866
     65 O12        -5.4770   -4.4170    2.8210 o         1 MOL     -0.591456
     66 H26        -5.9650   -1.1060    0.5710 hn        1 MOL      0.179356
     67 H27        -7.4860   -3.4620    1.5850 h1        1 MOL      0.064612
     68 H28        -7.0460   -2.1680    2.5050 h1        1 MOL      0.064612
     69 N8         -4.2470   -3.3420    1.3140 n         1 MOL     -0.175629
     70 C22        -2.9780   -3.9410    1.6880 c3        1 MOL      0.018624
     71 C23        -1.7770   -2.9410    1.5850 c         1 MOL      0.496400
     72 O13        -1.9400   -1.9010    0.9330 o         1 MOL     -0.492382
     73 C24        -2.5850   -5.2500    0.9390 c3        1 MOL      0.381643
     74 C25        -3.5790   -6.3580    1.1580 c3        1 MOL     -0.507733
     75 O14        -2.6030   -5.0070   -0.4830 oh        1 MOL     -0.643208
     76 H29        -4.3180   -2.5800    0.6520 hn        1 MOL      0.153301
     77 H30        -3.1080   -4.2530    2.7280 h1        1 MOL      0.022556
     78 H31        -1.5920   -5.4960    1.3350 h1        1 MOL     -0.001402
     79 H32        -2.9090   -5.8420   -0.8480 ho        1 MOL      0.387288
     80 H33        -2.9980   -7.2250    0.8630 hc        1 MOL      0.132562
     81 H34        -3.7010   -6.4990    2.2320 hc        1 MOL      0.132562
     82 H35        -4.5230   -6.1350    0.6500 hc        1 MOL      0.132562
     83 N9         -0.6390   -3.2570    2.2060 n         1 MOL     -0.467875
     84 C26         0.6100   -2.4960    2.1540 c3        1 MOL      0.179728
     85 C27         1.3700   -2.7720    0.7740 c         1 MOL      0.454593
     86 O15         1.5760   -3.9380    0.4510 o         1 MOL     -0.576093
     87 C28         1.4510   -2.7930    3.4100 c3        1 MOL     -0.039153
     88 C29         1.0290   -2.0470    4.7210 c3        1 MOL      0.076750
     89 C30         2.9380   -2.3870    3.1670 c3        1 MOL     -0.049188
     90 C31        -0.3430   -2.5070    5.2030 c3        1 MOL     -0.175252
     91 H36        -0.5870   -4.1360    2.6860 hn        1 MOL      0.258357
     92 H37         0.3170   -1.4460    2.1290 h1        1 MOL      0.094181
     93 H38         1.5340   -3.8800    3.4580 hc        1 MOL      0.025870
     94 H39         1.0930   -0.9790    4.5090 hc        1 MOL     -0.001557
     95 H40         1.7860   -2.2510    5.4880 hc        1 MOL     -0.001557
     96 H41         3.3240   -3.0640    2.4070 hc        1 MOL     -0.003273
     97 H42         3.1980   -1.3510    2.9730 hc        1 MOL     -0.003273
     98 H43         3.5070   -2.6410    4.0630 hc        1 MOL     -0.003273
     99 H44        -1.1150   -2.3210    4.4650 hc        1 MOL      0.034815
    100 H45        -0.4150   -3.5420    5.5450 hc        1 MOL      0.034815
    101 H46        -0.6590   -1.8420    6.0080 hc        1 MOL      0.034815
    102 N10         1.8560   -1.7290    0.0940 n         1 MOL     -0.036218
    103 C32         2.9220   -1.9660   -0.9140 c3        1 MOL      0.037646
    104 C33         4.3190   -1.6150   -0.4280 c         1 MOL      0.475608
    105 O16         4.5450   -0.9860    0.6560 o         1 MOL     -0.434405
    106 C34         2.6250   -1.1090   -2.1840 c3        1 MOL     -0.258191
    107 C35         1.2330   -1.4070   -2.7430 c         1 MOL      0.655472
    108 O17         0.2920   -0.6190   -2.4210 o         1 MOL     -0.652659
    109 O18         1.0790   -2.4370   -3.4570 o         1 MOL     -0.652659
    110 H47         1.6660   -0.7850    0.4200 hn        1 MOL     -0.061337
    111 H48         2.9250   -3.0390   -1.1170 h1        1 MOL      0.074407
    112 H49         3.3600   -1.3080   -2.9610 hc        1 MOL      0.077561
    113 H50         2.6210   -0.0310   -2.0120 hc        1 MOL      0.077561
    114 N11         5.3120   -1.8550   -1.2860 n         1 MOL     -0.599314
    115 C36         6.7060   -1.5380   -1.0240 c3        1 MOL      0.394810
    116 C37         6.9920   -0.0510   -0.7750 c         1 MOL      0.353407
    117 O19         7.7510    0.2170    0.1220 o         1 MOL     -0.485108
    118 C38         7.5800   -2.2040   -2.0170 c3        1 MOL     -0.041107
    119 C39         9.0560   -2.0240   -1.7930 ca        1 MOL      0.110746
    120 C40         9.6600   -2.2360   -0.5760 ca        1 MOL     -0.255071
    121 C41         9.8000   -1.4360   -2.8510 ca        1 MOL     -0.255071
    122 C42        11.0080   -1.8390   -0.3770 ca        1 MOL      0.025746
    123 C43        11.1600   -1.2120   -2.7130 ca        1 MOL      0.025746
    124 C44        11.7740   -1.4050   -1.5050 ca        1 MOL     -0.254101
    125 H51         5.1160   -2.2890   -2.1800 hn        1 MOL      0.314213
    126 H52         6.9420   -2.0730   -0.1070 h1        1 MOL      0.020716
    127 H53         7.3530   -1.6920   -2.9510 hc        1 MOL      0.009864
    128 H54         7.2790   -3.2390   -2.1680 hc        1 MOL      0.009864
    129 H55         9.0570   -2.7180    0.1770 ha        1 MOL      0.129721
    130 H56         9.2810   -1.0870   -3.7320 ha        1 MOL      0.129721
    131 H57        11.4550   -1.9800    0.6020 ha        1 MOL      0.081282
    132 H58        11.7830   -0.8250   -3.4990 ha        1 MOL      0.081282
    133 H59        12.7840   -1.0750   -1.3070 ha        1 MOL      0.131335
    134 N12         6.4150    1.0220   -1.4060 n         1 MOL     -0.144084
    135 C45         6.6220    2.3660   -0.9720 c3        1 MOL      0.053208
    136 C46         5.8650    2.6740    0.2950 c         1 MOL      0.341521
    137 O20         6.3010    3.5150    1.0730 o         1 MOL     -0.504677
    138 C47         6.0480    3.2680   -2.0630 c3        1 MOL     -0.236970
    139 C48         4.9410    2.4850   -2.7480 c3        1 MOL      0.088386
    140 C49         5.5100    1.0430   -2.6100 c3        1 MOL     -0.047114
    141 H60         7.6700    2.6000   -0.7510 h1        1 MOL      0.072849
    142 H61         5.6550    4.2050   -1.6630 hc        1 MOL      0.080593
    143 H62         6.8550    3.4410   -2.7830 hc        1 MOL      0.080593
    144 H63         3.9730    2.6400   -2.2780 hc        1 MOL      0.020822
    145 H64         4.8810    2.7010   -3.8190 hc        1 MOL      0.020822
    146 H65         4.7640    0.2540   -2.5930 h1        1 MOL      0.026030
    147 H66         6.1090    0.8680   -3.4960 h1        1 MOL      0.026030
    148 N13         4.7480    1.9810    0.4810 n         1 MOL     -0.097090
    149 C50         3.8420    2.2570    1.6090 c3        1 MOL     -0.065899
    150 C51         4.4550    1.8120    2.9310 c         1 MOL      0.344801
    151 O21         4.4190    2.4730    4.0030 o         1 MOL     -0.534524
    152 C52         2.4590    1.7050    1.3700 c3        1 MOL      0.086049
    153 C53         1.5460    2.4290    0.3750 c3        1 MOL     -0.047022
    154 C54         0.3260    1.5980   -0.1550 c         1 MOL      0.632469
    155 O22         0.1310    0.4360    0.3120 o         1 MOL     -0.702807
    156 O23        -0.5910    2.0230   -0.9330 o         1 MOL     -0.702807
    157 H67         4.6540    1.0820    0.0370 hn        1 MOL      0.113668
    158 H68         3.7710    3.3390    1.6860 h1        1 MOL      0.097046
    159 H69         1.9160    1.6780    2.3170 hc        1 MOL      0.035020
    160 H70         2.5530    0.6770    1.0190 hc        1 MOL      0.035020
    161 H71         2.0760    2.7580   -0.5170 hc        1 MOL      0.008972
    162 H72         1.2320    3.3480    0.8830 hc        1 MOL      0.008972
    163 N14         5.1160    0.6660    2.8060 n         1 MOL      0.044262
    164 C55         6.0400    0.1090    3.7440 c3        1 MOL     -0.201041
    165 H73         6.7780   -0.4920    3.2130 h1        1 MOL      0.066902
    166 H74         6.5450    0.9140    4.2790 h1        1 MOL      0.066902
    167 H75         5.5030   -0.5190    4.4550 h1        1 MOL      0.066902
    168 H76         5.0720    0.1400    1.9460 hn        1 MOL      0.075253
    169 Ca1        -1.7710   -0.4070   -1.1470 Ca        1 MOL      1.690963
    170 O24        -1.2810   -2.9320   -1.7680 oh        1 MOL     -0.895551
    171 H77        -0.5100   -3.1260   -2.2830 ho        1 MOL      0.421666
    172 H78        -1.6560   -3.7850   -1.5640 ho        1 MOL      0.421666
    173 O25        -1.4920   -1.2590   -4.2530 oh        1 MOL     -0.895551
    174 H79        -1.9810   -0.4750   -4.5370 ho        1 MOL      0.421666
    175 H80        -0.6990   -0.8960   -3.8530 ho        1 MOL      0.421666
@<TRIPOS>BOND
     1    1    2 1   
     2    1    4 1   
     3    1    5 1   
     4    1    6 1   
     5    2    3 2   
     6    2    7 1   
     7    7    8 1   
     8    7   15 1   
     9    8    9 1   
    10    8   11 1   
    11    8   16 1   
    12    9   10 2   
    13    9   19 1   
    14   11   12 1   
    15   11   17 1   
    16   11   18 1   
    17   12   13 1   
    18   12   14 1   
    19   19   20 1   
    20   19   24 1   
    21   20   21 1   
    22   20   23 1   
    23   20   25 1   
    24   21   22 2   
    25   21   29 1   
    26   23   26 1   
    27   23   27 1   
    28   23   28 1   
    29   29   30 1   
    30   29   37 1   
    31   30   31 1   
    32   30   33 1   
    33   30   38 1   
    34   31   32 2   
    35   31   41 1   
    36   33   34 1   
    37   33   39 1   
    38   33   40 1   
    39   34   35 1   
    40   34   36 1   
    41   41   42 1   
    42   41   45 1   
    43   42   43 1   
    44   42   46 1   
    45   42   47 1   
    46   43   44 2   
    47   43   48 1   
    48   48   49 1   
    49   48   56 1   
    50   49   50 1   
    51   49   52 1   
    52   49   57 1   
    53   50   51 2   
    54   50   62 1   
    55   52   53 1   
    56   52   58 1   
    57   52   59 1   
    58   53   54 1   
    59   53   55 2   
    60   54   60 1   
    61   54   61 1   
    62   62   63 1   
    63   62   66 1   
    64   63   64 1   
    65   63   67 1   
    66   63   68 1   
    67   64   65 2   
    68   64   69 1   
    69   69   70 1   
    70   69   76 1   
    71   70   71 1   
    72   70   73 1   
    73   70   77 1   
    74   71   72 2   
    75   71   83 1   
    76   73   74 1   
    77   73   75 1   
    78   73   78 1   
    79   74   80 1   
    80   74   81 1   
    81   74   82 1   
    82   75   79 1   
    83   83   84 1   
    84   83   91 1   
    85   84   85 1   
    86   84   87 1   
    87   84   92 1   
    88   85   86 2   
    89   85  102 1   
    90   87   88 1   
    91   87   89 1   
    92   87   93 1   
    93   88   90 1   
    94   88   94 1   
    95   88   95 1   
    96   89   96 1   
    97   89   97 1   
    98   89   98 1   
    99   90   99 1   
   100   90  100 1   
   101   90  101 1   
   102  102  103 1   
   103  102  110 1   
   104  103  104 1   
   105  103  106 1   
   106  103  111 1   
   107  104  105 2   
   108  104  114 1   
   109  106  107 1   
   110  106  112 1   
   111  106  113 1   
   112  107  108 1   
   113  107  109 1   
   114  114  115 1   
   115  114  125 1   
   116  115  116 1   
   117  115  118 1   
   118  115  126 1   
   119  116  117 2   
   120  116  134 1   
   121  118  119 1   
   122  118  127 1   
   123  118  128 1   
   124  119  120 ar  
   125  119  121 ar  
   126  120  122 ar  
   127  120  129 1   
   128  121  123 ar  
   129  121  130 1   
   130  122  124 ar  
   131  122  131 1   
   132  123  124 ar  
   133  123  132 1   
   134  124  133 1   
   135  134  135 1   
   136  134  140 1   
   137  135  136 1   
   138  135  138 1   
   139  135  141 1   
   140  136  137 2   
   141  136  148 1   
   142  138  139 1   
   143  138  142 1   
   144  138  143 1   
   145  139  140 1   
   146  139  144 1   
   147  139  145 1   
   148  140  146 1   
   149  140  147 1   
   150  148  149 1   
   151  148  157 1   
   152  149  150 1   
   153  149  152 1   
   154  149  158 1   
   155  150  151 2   
   156  150  163 1   
   157  152  153 1   
   158  152  159 1   
   159  152  160 1   
   160  153  154 1   
   161  153  161 1   
   162  153  162 1   
   163  154  155 1   
   164  154  156 1   
   165  163  164 1   
   166  163  168 1   
   167  164  165 1   
   168  164  166 1   
   169  164  167 1   
   170  170  171 1   
   171  170  172 1   
   172  173  174 1   
   173  173  175 1   
@<TRIPOS>SUBSTRUCTURE
     1 MOL         1 TEMP              0 ****  ****    0 ROOT
