@<TRIPOS>MOLECULE
MOL
  183   181     1     0     0
SMALL
resp


@<TRIPOS>ATOM
      1 C1          0.3600   -1.3830    6.0190 c3        1 MOL     -0.341712
      2 C2          0.8030   -1.6090    4.5650 c         1 MOL      0.841819
      3 O1          0.1290   -2.3290    3.8130 o         1 MOL     -0.629651
      4 H1          0.9120   -2.0550    6.6760 hc        1 MOL      0.079342
      5 H2          0.5610   -0.3500    6.3050 hc        1 MOL      0.079342
      6 H3         -0.7080   -1.5830    6.1090 hc        1 MOL      0.079342
      7 N1          2.0070   -1.1590    4.1350 n         1 MOL     -0.672131
      8 C3          2.5840   -1.4070    2.8320 c3        1 MOL      0.231692
      9 C4          2.8100   -2.9450    2.7190 c         1 MOL      0.474203
     10 O2          3.4600   -3.4910    3.5630 o         1 MOL     -0.582182
     11 C5          3.8350   -0.5000    2.5990 c3        1 MOL     -0.169805
     12 C6          4.4640   -0.7160    1.2730 c         1 MOL      0.620778
     13 O3          5.6260   -0.3590    1.1580 o         1 MOL     -0.619682
     14 O4          3.7630   -1.1470    0.3440 o         1 MOL     -0.619682
     15 H4          2.6350   -0.7270    4.7950 hn        1 MOL      0.296698
     16 H5          1.8650   -1.1390    2.0570 h1        1 MOL     -0.031353
     17 H6          4.6430   -0.7060    3.2940 hc        1 MOL      0.042522
     18 H7          3.5200    0.5340    2.7380 hc        1 MOL      0.042522
     19 N2          2.1920   -3.5890    1.7630 n         1 MOL     -0.212685
     20 C7          2.4240   -5.0080    1.4290 c3        1 MOL     -0.183730
     21 C8          3.6110   -5.1070    0.4670 c         1 MOL      0.576385
     22 O5          4.2790   -6.1710    0.5290 o         1 MOL     -0.595806
     23 C9          1.0860   -5.6080    0.8470 c3        1 MOL      0.415508
     24 C10         0.1280   -5.6990    2.0240 c3        1 MOL      0.064585
     25 C11         1.2200   -6.9360    0.1610 c3        1 MOL     -0.407962
     26 C12        -1.1830   -6.4000    1.8030 c3        1 MOL     -0.169956
     27 H8          1.5630   -3.0150    1.2120 hn        1 MOL      0.181634
     28 H9          2.6780   -5.5270    2.3520 h1        1 MOL      0.095806
     29 H10         0.6230   -4.9340    0.1260 hc        1 MOL     -0.019893
     30 H11        -0.1010   -4.6910    2.3570 hc        1 MOL     -0.017389
     31 H12         0.7100   -6.1840    2.8060 hc        1 MOL     -0.017389
     32 H13         1.3040   -7.6990    0.9420 hc        1 MOL      0.075643
     33 H14         0.3770   -7.0270   -0.5200 hc        1 MOL      0.075643
     34 H15         2.1180   -7.0180   -0.4450 hc        1 MOL      0.075643
     35 H16        -1.7930   -5.8140    1.1120 hc        1 MOL      0.023413
     36 H17        -0.9720   -7.3970    1.4170 hc        1 MOL      0.023413
     37 H18        -1.7580   -6.4500    2.7290 hc        1 MOL      0.023413
     38 N3          4.0160   -4.1150   -0.3690 n         1 MOL     -0.295775
     39 C13         4.9420   -4.2940   -1.5100 c3        1 MOL     -0.048341
     40 C14         6.3260   -3.6460   -1.5600 c         1 MOL      0.516957
     41 O6          7.2340   -4.2040   -2.2450 o         1 MOL     -0.596908
     42 C15         4.2550   -3.9250   -2.8550 c3        1 MOL     -0.038911
     43 C16         3.5220   -2.5250   -2.7940 c         1 MOL      0.658887
     44 O7          2.3100   -2.5110   -2.4590 o         1 MOL     -0.745525
     45 O8          4.1780   -1.4670   -2.8890 o         1 MOL     -0.745525
     46 H19         3.4440   -3.2860   -0.3770 hn        1 MOL      0.170307
     47 H20         5.1830   -5.3560   -1.4740 h1        1 MOL      0.083962
     48 H21         3.5380   -4.6550   -3.2110 hc        1 MOL      0.013578
     49 H22         5.0430   -3.9350   -3.6020 hc        1 MOL      0.013578
     50 N4          6.6260   -2.6050   -0.7780 n         1 MOL     -0.290208
     51 C17         7.9640   -1.9940   -0.7560 c3        1 MOL     -0.027762
     52 C18         7.9660   -0.5270   -1.2270 c         1 MOL      0.499685
     53 O9          9.0910   -0.0100   -1.2480 o         1 MOL     -0.638992
     54 H23         5.8590   -2.2370   -0.2270 hn        1 MOL      0.202405
     55 H24         8.6890   -2.5520   -1.3370 h1        1 MOL      0.072992
     56 H25         8.3750   -2.0270    0.2580 h1        1 MOL      0.072992
     57 N5          6.9330    0.1190   -1.6100 n         1 MOL     -0.231541
     58 C19         6.9910    1.5800   -1.9130 c3        1 MOL     -0.013638
     59 C20         6.9930    2.5510   -0.7310 c         1 MOL      0.496551
     60 O10         7.3180    3.6860   -0.9360 o         1 MOL     -0.598476
     61 C21         5.9020    1.9850   -2.9020 c3        1 MOL     -0.229470
     62 C22         4.5050    1.6440   -2.4250 c         1 MOL      0.872462
     63 O11         3.6000    1.5200   -3.2530 o         1 MOL     -0.755810
     64 O12         4.2470    1.4800   -1.1660 o         1 MOL     -0.755810
     65 H26         6.0110   -0.2490   -1.4410 hn        1 MOL      0.198675
     66 H27         7.8650    1.7460   -2.5380 h1        1 MOL      0.094442
     67 H28         6.1050    1.4000   -3.7980 hc        1 MOL      0.061417
     68 H29         5.9430    3.0540   -3.1150 hc        1 MOL      0.061417
     69 N6          6.6120    2.1670    0.4360 n         1 MOL     -0.220655
     70 C23         6.4040    3.0130    1.6270 c3        1 MOL     -0.065390
     71 C24         5.2440    4.0490    1.3770 c         1 MOL      0.509835
     72 O13         5.3470    5.1650    1.8260 o         1 MOL     -0.567781
     73 H30         6.3040    1.2060    0.5300 hn        1 MOL      0.182315
     74 H31         7.2530    3.6270    1.9440 h1        1 MOL      0.057141
     75 H32         6.2100    2.3600    2.4670 h1        1 MOL      0.057141
     76 N7          4.1750    3.5840    0.7650 n         1 MOL     -0.417048
     77 C25         2.9740    4.4350    0.5170 c3        1 MOL     -0.148027
     78 C26         1.7850    3.5510    0.5310 c         1 MOL      0.831566
     79 O14         1.7330    2.5120   -0.1800 o         1 MOL     -0.806605
     80 C27         3.1780    5.0750   -0.8480 c3        1 MOL      0.160759
     81 C28         4.3550    6.1240   -0.9710 c3        1 MOL     -0.290686
     82 C29         4.1140    7.2890   -0.0300 c         1 MOL      0.680408
     83 N8          5.1060    7.9570    0.4790 n         1 MOL     -0.794803
     84 O15         2.9750    7.7470    0.1830 o         1 MOL     -0.615144
     85 H33         4.2240    2.6550    0.3720 hn        1 MOL      0.352784
     86 H34         2.8150    5.2540    1.2170 h1        1 MOL      0.113311
     87 H35         2.2180    5.4980   -1.1180 hc        1 MOL     -0.013184
     88 H36         3.4460    4.3030   -1.5830 hc        1 MOL     -0.013184
     89 H37         4.4370    6.5790   -1.9590 hc        1 MOL      0.097071
     90 H38         5.2580    5.5970   -0.6530 hc        1 MOL      0.097071
     91 H39         6.0210    7.5290    0.3840 hn        1 MOL      0.362150
     92 H40         4.8590    8.7560    1.0320 hn        1 MOL      0.362150
     93 N9          0.8040    3.8040    1.3900 n         1 MOL     -0.622911
     94 C30        -0.3370    2.9110    1.5930 c3        1 MOL      0.044153
     95 C31        -1.3500    3.2200    0.4480 c         1 MOL      0.546307
     96 O16        -1.8360    4.3040    0.3610 o         1 MOL     -0.592196
     97 C32        -1.0270    3.1020    2.9810 c3        1 MOL      0.304822
     98 C33        -1.9080    1.9440    3.3300 c3        1 MOL     -0.328220
     99 C34         0.0640    3.2420    4.1170 c3        1 MOL     -0.328220
    100 H41         0.8400    4.6390    1.9440 hn        1 MOL      0.309824
    101 H42         0.0630    1.8990    1.5650 h1        1 MOL      0.172274
    102 H43        -1.6630    3.9840    2.9390 hc        1 MOL     -0.032620
    103 H44        -1.3680    1.0020    3.2240 hc        1 MOL      0.057846
    104 H45        -2.4490    2.1050    4.2630 hc        1 MOL      0.057846
    105 H46        -2.6630    2.0090    2.5440 hc        1 MOL      0.057846
    106 H47         0.5760    4.1970    4.1740 hc        1 MOL      0.057846
    107 H48        -0.3880    2.8950    5.0530 hc        1 MOL      0.057846
    108 H49         0.8500    2.5030    3.9890 hc        1 MOL      0.057846
    109 N10        -1.6120    2.2430   -0.3750 n         1 MOL     -0.221521
    110 C35        -2.7660    2.2670   -1.3080 c3        1 MOL      0.120242
    111 C36        -4.1350    2.0120   -0.6120 c         1 MOL      0.388503
    112 O17        -4.1800    1.4220    0.5410 o         1 MOL     -0.477354
    113 C37        -2.4310    1.1340   -2.2550 c3        1 MOL     -0.173757
    114 C38        -3.4510    1.1180   -3.4360 c         1 MOL      0.611303
    115 N11        -3.3450    0.0540   -4.2970 n         1 MOL     -0.743437
    116 O18        -4.3400    1.9200   -3.7030 o         1 MOL     -0.519516
    117 H50        -1.0600    1.3890   -0.3330 hn        1 MOL      0.216595
    118 H51        -2.8970    3.2170   -1.8300 h1        1 MOL      0.035265
    119 H52        -2.5750    0.1780   -1.7490 hc        1 MOL      0.018806
    120 H53        -1.3930    1.2590   -2.5680 hc        1 MOL      0.018806
    121 H54        -2.5830   -0.5760   -4.0880 hn        1 MOL      0.356553
    122 H55        -3.7810   -0.0330   -5.2060 hn        1 MOL      0.356553
    123 N12        -5.2490    2.3270   -1.2050 n         1 MOL     -0.440247
    124 C39        -6.5340    2.0570   -0.5940 c3        1 MOL      0.254972
    125 C40        -6.7660    0.6450   -0.2570 c         1 MOL      0.624626
    126 O19        -7.1040    0.3790    0.8760 o         1 MOL     -0.562604
    127 C41        -7.6440    2.5920   -1.5510 c3        1 MOL     -0.039146
    128 C42        -8.9600    2.2610   -1.0700 ca        1 MOL      0.014244
    129 C43        -9.4220    2.9990    0.0580 ca        1 MOL     -0.225772
    130 C44        -9.7720    1.2650   -1.6820 ca        1 MOL     -0.225772
    131 C45       -10.7190    2.7970    0.5190 ca        1 MOL     -0.172465
    132 C46       -11.0340    1.0670   -1.1520 ca        1 MOL     -0.172465
    133 C47       -11.5200    1.8660   -0.0700 ca        1 MOL      0.283158
    134 O20       -12.8370    1.6750    0.3160 oh        1 MOL     -0.506058
    135 H56        -5.2310    2.5660   -2.1890 hn        1 MOL      0.222017
    136 H57        -6.6930    2.6670    0.2940 h1        1 MOL      0.007206
    137 H58        -7.5260    2.1410   -2.5380 hc        1 MOL      0.025994
    138 H59        -7.5240    3.6680   -1.6570 hc        1 MOL      0.025994
    139 H60        -8.7020    3.6520    0.5330 ha        1 MOL      0.155078
    140 H61        -9.3540    0.6900   -2.4920 ha        1 MOL      0.155078
    141 H62       -11.1250    3.3430    1.3560 ha        1 MOL      0.123590
    142 H63       -11.7250    0.4180   -1.6600 ha        1 MOL      0.123590
    143 H64       -13.2490    1.0540   -0.2900 ho        1 MOL      0.348072
    144 N13        -6.4460   -0.3340   -1.1160 n         1 MOL     -0.298206
    145 C48        -6.5710   -1.8040   -0.7590 c3        1 MOL     -0.279534
    146 C49        -5.7120   -2.2500    0.3960 c         1 MOL      0.500848
    147 O21        -6.1530   -3.0410    1.2470 o         1 MOL     -0.510122
    148 C50        -6.4820   -2.7160   -2.0080 c3        1 MOL     -0.046022
    149 C51        -5.2850   -2.4030   -2.9110 c3        1 MOL     -0.092361
    150 C52        -4.9660   -3.6800   -3.7400 c         1 MOL      0.699044
    151 O22        -4.4880   -4.6750   -3.1680 o         1 MOL     -0.725117
    152 O23        -5.1380   -3.5790   -4.9450 o         1 MOL     -0.725117
    153 H65        -6.2970   -0.0690   -2.0770 hn        1 MOL      0.235986
    154 H66        -7.6060   -1.9030   -0.4250 h1        1 MOL      0.110565
    155 H67        -7.3700   -2.6310   -2.6260 hc        1 MOL      0.052529
    156 H68        -6.4930   -3.7530   -1.6710 hc        1 MOL      0.052529
    157 H69        -4.4130   -2.0550   -2.3730 hc        1 MOL     -0.026426
    158 H70        -5.6560   -1.6480   -3.5960 hc        1 MOL     -0.026426
    159 N14        -4.5170   -1.6860    0.5620 n         1 MOL     -0.073146
    160 C53        -3.6140   -1.8900    1.7090 c3        1 MOL     -0.439254
    161 C54        -4.3080   -1.5350    3.0900 c         1 MOL      0.418103
    162 O24        -4.4090   -2.3710    4.0370 o         1 MOL     -0.520250
    163 C55        -2.2610   -1.2980    1.5380 c3        1 MOL      0.529543
    164 C56        -1.6020   -1.8940    0.2890 c3        1 MOL     -0.248719
    165 C57        -0.2640   -1.2370    0.0710 c         1 MOL      0.724960
    166 O25         0.7210   -1.9510   -0.1270 o         1 MOL     -0.729875
    167 O26        -0.1260   -0.0100   -0.1000 o         1 MOL     -0.729875
    168 H71        -4.2650   -0.9460   -0.0800 hn        1 MOL      0.140081
    169 H72        -3.4810   -2.9700    1.7650 h1        1 MOL      0.178584
    170 H73        -1.7100   -1.5450    2.4410 hc        1 MOL     -0.089046
    171 H74        -2.2890   -0.2100    1.4880 hc        1 MOL     -0.089046
    172 H75        -2.2220   -1.8740   -0.6050 hc        1 MOL      0.077124
    173 H76        -1.4730   -2.9620    0.4980 hc        1 MOL      0.077124
    174 N15        -4.8040   -0.2770    3.1040 n         1 MOL     -0.023001
    175 C58        -5.5520    0.2540    4.2750 c3        1 MOL     -0.254252
    176 H77        -6.5990    0.3930    4.0040 h1        1 MOL      0.088026
    177 H78        -5.4820   -0.4520    5.1020 h1        1 MOL      0.088026
    178 H79        -5.1250    1.2100    4.5760 h1        1 MOL      0.088026
    179 H80        -4.7860    0.2680    2.2550 hn        1 MOL      0.131537
    180 Ca1         2.1880   -0.0830   -1.4840 Ca        1 MOL      1.748292
    181 O27         0.6620   -0.0990   -3.8430 oh        1 MOL     -0.708423
    182 H81         0.0920   -0.7710   -3.4650 ho        1 MOL      0.374867
    183 H82         0.3870   -0.0410   -4.7540 ho        1 MOL      0.374867
@<TRIPOS>BOND
     1    1    2 1   
     2    1    4 1   
     3    1    5 1   
     4    1    6 1   
     5    2    3 2   
     6    2    7 1   
     7    7    8 1   
     8    7   15 1   
     9    8    9 1   
    10    8   11 1   
    11    8   16 1   
    12    9   10 2   
    13    9   19 1   
    14   11   12 1   
    15   11   17 1   
    16   11   18 1   
    17   12   13 1   
    18   12   14 1   
    19   19   20 1   
    20   19   27 1   
    21   20   21 1   
    22   20   23 1   
    23   20   28 1   
    24   21   22 2   
    25   21   38 1   
    26   23   24 1   
    27   23   25 1   
    28   23   29 1   
    29   24   26 1   
    30   24   30 1   
    31   24   31 1   
    32   25   32 1   
    33   25   33 1   
    34   25   34 1   
    35   26   35 1   
    36   26   36 1   
    37   26   37 1   
    38   38   39 1   
    39   38   46 1   
    40   39   40 1   
    41   39   42 1   
    42   39   47 1   
    43   40   41 2   
    44   40   50 1   
    45   42   43 1   
    46   42   48 1   
    47   42   49 1   
    48   43   44 1   
    49   43   45 1   
    50   50   51 1   
    51   50   54 1   
    52   51   52 1   
    53   51   55 1   
    54   51   56 1   
    55   52   53 2   
    56   52   57 1   
    57   57   58 1   
    58   57   65 1   
    59   58   59 1   
    60   58   61 1   
    61   58   66 1   
    62   59   60 2   
    63   59   69 1   
    64   61   62 1   
    65   61   67 1   
    66   61   68 1   
    67   62   63 1   
    68   62   64 1   
    69   69   70 1   
    70   69   73 1   
    71   70   71 1   
    72   70   74 1   
    73   70   75 1   
    74   71   72 2   
    75   71   76 1   
    76   76   77 1   
    77   76   85 1   
    78   77   78 1   
    79   77   80 1   
    80   77   86 1   
    81   78   79 2   
    82   78   93 1   
    83   80   81 1   
    84   80   87 1   
    85   80   88 1   
    86   81   82 1   
    87   81   89 1   
    88   81   90 1   
    89   82   83 1   
    90   82   84 2   
    91   83   91 1   
    92   83   92 1   
    93   93   94 1   
    94   93  100 1   
    95   94   95 1   
    96   94   97 1   
    97   94  101 1   
    98   95   96 2   
    99   95  109 1   
   100   97   98 1   
   101   97   99 1   
   102   97  102 1   
   103   98  103 1   
   104   98  104 1   
   105   98  105 1   
   106   99  106 1   
   107   99  107 1   
   108   99  108 1   
   109  109  110 1   
   110  109  117 1   
   111  110  111 1   
   112  110  113 1   
   113  110  118 1   
   114  111  112 2   
   115  111  123 1   
   116  113  114 1   
   117  113  119 1   
   118  113  120 1   
   119  114  115 1   
   120  114  116 2   
   121  115  121 1   
   122  115  122 1   
   123  123  124 1   
   124  123  135 1   
   125  124  125 1   
   126  124  127 1   
   127  124  136 1   
   128  125  126 2   
   129  125  144 1   
   130  127  128 1   
   131  127  137 1   
   132  127  138 1   
   133  128  129 ar  
   134  128  130 ar  
   135  129  131 ar  
   136  129  139 1   
   137  130  132 ar  
   138  130  140 1   
   139  131  133 ar  
   140  131  141 1   
   141  132  133 ar  
   142  132  142 1   
   143  133  134 1   
   144  134  143 1   
   145  144  145 1   
   146  144  153 1   
   147  145  146 1   
   148  145  148 1   
   149  145  154 1   
   150  146  147 2   
   151  146  159 1   
   152  148  149 1   
   153  148  155 1   
   154  148  156 1   
   155  149  150 1   
   156  149  157 1   
   157  149  158 1   
   158  150  151 1   
   159  150  152 1   
   160  159  160 1   
   161  159  168 1   
   162  160  161 1   
   163  160  163 1   
   164  160  169 1   
   165  161  162 2   
   166  161  174 1   
   167  163  164 1   
   168  163  170 1   
   169  163  171 1   
   170  164  165 1   
   171  164  172 1   
   172  164  173 1   
   173  165  166 1   
   174  165  167 1   
   175  174  175 1   
   176  174  179 1   
   177  175  176 1   
   178  175  177 1   
   179  175  178 1   
   180  181  182 1   
   181  181  183 1   
@<TRIPOS>SUBSTRUCTURE
     1 MOL         1 TEMP              0 ****  ****    0 ROOT
