@<TRIPOS>MOLECULE
MOL
  179   176     1     0     0
SMALL
resp


@<TRIPOS>ATOM
      1 C1          1.9550    2.3890    5.5060 c3        1 MOL     -0.336450
      2 C2          1.2010    2.2000    4.2000 c         1 MOL      0.761261
      3 O1          1.7650    2.1960    3.1320 o         1 MOL     -0.599465
      4 H1          1.5990    1.6630    6.2380 hc        1 MOL      0.083260
      5 H2          3.0210    2.2390    5.3370 hc        1 MOL      0.083260
      6 H3          1.7840    3.3970    5.8830 hc        1 MOL      0.083260
      7 N1         -0.0840    2.1550    4.2130 n         1 MOL     -0.627375
      8 C3         -0.8590    1.9390    2.9820 c3        1 MOL      0.238872
      9 C4         -1.1330    3.2870    2.2660 c         1 MOL      0.393825
     10 O2         -1.9620    4.0850    2.6670 o         1 MOL     -0.485713
     11 C5         -2.0910    1.0660    3.3010 c3        1 MOL     -0.111813
     12 C6         -2.9710    0.7040    2.0940 c         1 MOL      0.714733
     13 O3         -2.4640    0.7210    0.9500 o         1 MOL     -0.715566
     14 O4         -4.1640    0.2980    2.3390 o         1 MOL     -0.715566
     15 H4         -0.6020    2.1650    5.0840 hn        1 MOL      0.317687
     16 H5         -0.2880    1.3380    2.2710 h1        1 MOL      0.068001
     17 H6         -2.5570    1.6460    4.0940 hc        1 MOL      0.016452
     18 H7         -1.7060    0.1030    3.6630 hc        1 MOL      0.016452
     19 N2         -0.4230    3.4870    1.1680 n         1 MOL     -0.132683
     20 C7         -0.2100    4.8540    0.6550 c3        1 MOL      0.017657
     21 C8         -1.4850    5.3020    0.0210 c         1 MOL      0.337709
     22 O5         -1.8970    6.3880    0.3390 o         1 MOL     -0.535659
     23 C9          1.0040    4.8540   -0.2730 c3        1 MOL     -0.139550
     24 C10         1.3150    6.2330   -0.9140 c3        1 MOL     -0.149529
     25 C11         2.6580    6.2470   -1.6590 c3        1 MOL     -0.123758
     26 C12         2.9700    7.6110   -2.2930 c3        1 MOL     -0.078640
     27 N3          3.2470    8.7050   -1.3080 n4        1 MOL     -0.351814
     28 H8          0.2460    2.7490    0.9810 hn        1 MOL      0.071285
     29 H9         -0.0010    5.5200    1.4920 h1        1 MOL      0.078088
     30 H10         0.7020    4.2130   -1.0980 hc        1 MOL      0.140486
     31 H11         1.9260    4.5980    0.2410 hc        1 MOL      0.140486
     32 H12         1.3230    7.0110   -0.1490 hc        1 MOL      0.075523
     33 H13         0.4940    6.4360   -1.5970 hc        1 MOL      0.075523
     34 H14         2.5610    5.4320   -2.3710 hc        1 MOL      0.090444
     35 H15         3.5270    5.8120   -1.1800 hc        1 MOL      0.090444
     36 H16         2.0550    7.7900   -2.8690 hx        1 MOL      0.128363
     37 H17         3.7510    7.5610   -3.0420 hx        1 MOL      0.128363
     38 H18         3.5810    9.4640   -1.8800 hn        1 MOL      0.333807
     39 H19         2.5600    9.0220   -0.6370 hn        1 MOL      0.333807
     40 H20         3.9710    8.3630   -0.6920 hn        1 MOL      0.333807
     41 N4         -2.1560    4.4700   -0.8020 n         1 MOL     -0.278266
     42 C13        -3.4500    4.8030   -1.4670 c3        1 MOL      0.283004
     43 C14        -4.6550    4.2090   -0.6920 c         1 MOL      0.356039
     44 O6         -5.7330    4.1790   -1.1690 o         1 MOL     -0.496222
     45 C15        -3.4490    4.2910   -2.8640 c3        1 MOL     -0.453598
     46 C16        -3.1790    2.7910   -2.9290 c         1 MOL      0.914081
     47 O7         -2.9140    2.3140   -4.0600 o         1 MOL     -0.720861
     48 O8         -2.9680    2.0340   -1.9560 o         1 MOL     -0.720861
     49 H21        -1.6480    3.6260   -1.0080 hn        1 MOL      0.177826
     50 H22        -3.5790    5.8800   -1.4600 h1        1 MOL      0.046677
     51 H23        -2.5440    4.7200   -3.2870 hc        1 MOL      0.104302
     52 H24        -4.3410    4.7130   -3.3280 hc        1 MOL      0.104302
     53 N5         -4.4760    3.5000    0.4780 n         1 MOL     -0.180129
     54 C17        -5.5290    2.8960    1.3130 c3        1 MOL     -0.102046
     55 C18        -6.2980    1.7930    0.6080 c         1 MOL      0.526444
     56 O9         -7.4910    1.6780    0.8370 o         1 MOL     -0.594295
     57 H25        -3.5760    3.4860    0.9350 hn        1 MOL      0.136183
     58 H26        -6.2660    3.6470    1.5960 h1        1 MOL      0.085850
     59 H27        -5.1130    2.4950    2.2360 h1        1 MOL      0.085850
     60 N6         -5.6480    1.0220   -0.2410 n         1 MOL      0.008937
     61 C19        -6.3470   -0.1350   -0.8840 c3        1 MOL     -0.192102
     62 C20        -6.4040   -1.4100   -0.0800 c         1 MOL      0.461253
     63 O10        -6.9260   -2.4360   -0.5960 o         1 MOL     -0.544034
     64 C21        -5.7620   -0.4130   -2.2670 c3        1 MOL     -0.108062
     65 C22        -4.5660   -1.3190   -2.2260 c         1 MOL      0.493084
     66 N7         -4.2800   -2.0240   -3.3590 n         1 MOL     -0.560850
     67 O11        -3.7470   -1.3280   -1.3100 o         1 MOL     -0.516307
     68 H28        -4.6510    1.0900   -0.3810 hn        1 MOL     -0.072914
     69 H29        -7.3830    0.1280   -1.1060 h1        1 MOL      0.149766
     70 H30        -5.6050    0.5480   -2.7500 hc        1 MOL      0.080201
     71 H31        -6.5120   -0.9510   -2.8410 hc        1 MOL      0.080201
     72 H32        -4.7820   -1.7580   -4.1930 hn        1 MOL      0.282603
     73 H33        -3.5210   -2.6990   -3.3510 hn        1 MOL      0.282603
     74 N8         -5.8540   -1.4590    1.1510 n         1 MOL     -0.217377
     75 C23        -5.9750   -2.5780    2.1140 c3        1 MOL     -0.189657
     76 C24        -4.7380   -3.4170    2.4170 c         1 MOL      0.534426
     77 O12        -4.6960   -4.3460    3.2580 o         1 MOL     -0.584330
     78 H34        -5.1140   -0.7780    1.2860 hn        1 MOL      0.265823
     79 H35        -6.8040   -3.2160    1.8110 h1        1 MOL      0.112439
     80 H36        -6.2340   -2.1500    3.0750 h1        1 MOL      0.112439
     81 N9         -3.6660   -3.1260    1.7290 n         1 MOL     -0.258038
     82 C25        -2.4030   -3.7790    1.8700 c3        1 MOL     -0.105501
     83 C26        -1.2590   -2.9130    1.4250 c         1 MOL      0.712567
     84 O13        -1.3080   -2.1690    0.4930 o         1 MOL     -0.727840
     85 C27        -2.5340   -5.0730    1.1200 c3        1 MOL     -0.188016
     86 C28        -2.9400   -4.9860   -0.3210 ca        1 MOL      0.227438
     87 C29        -1.9600   -4.6280   -1.3170 ca        1 MOL     -0.329589
     88 C30        -4.1350   -5.6410   -0.7180 ca        1 MOL     -0.329589
     89 C31        -2.3190   -4.7460   -2.6700 ca        1 MOL     -0.055062
     90 C32        -4.4520   -5.7720   -2.1390 ca        1 MOL     -0.055062
     91 C33        -3.5190   -5.3230   -3.0660 ca        1 MOL      0.090000
     92 O14        -3.7700   -5.4950   -4.3620 oh        1 MOL     -0.412621
     93 H37        -3.8570   -2.6130    0.8750 hn        1 MOL      0.301290
     94 H38        -2.2580   -4.0920    2.9030 h1        1 MOL      0.117095
     95 H39        -3.2410   -5.7190    1.6480 hc        1 MOL      0.079604
     96 H40        -1.5660   -5.5540    1.2570 hc        1 MOL      0.079604
     97 H41        -0.9450   -4.3490   -1.0540 ha        1 MOL      0.199144
     98 H42        -4.7670   -6.1060    0.0230 ha        1 MOL      0.199144
     99 H43        -1.5730   -4.6050   -3.4360 ha        1 MOL      0.113538
    100 H44        -5.3550   -6.2580   -2.4910 ha        1 MOL      0.113538
    101 H45        -3.1070   -5.0130   -4.8610 ho        1 MOL      0.322115
    102 N10        -0.1480   -3.1390    2.1330 n         1 MOL     -0.614089
    103 C34         1.1840   -2.6040    1.9780 c3        1 MOL      0.361173
    104 C35         1.9030   -3.5410    1.0000 c         1 MOL      0.317044
    105 O15         1.8220   -4.8060    1.0880 o         1 MOL     -0.527434
    106 C36         1.9330   -2.6780    3.3450 c3        1 MOL      0.022290
    107 C37         1.1210   -2.1910    4.5360 c3        1 MOL      0.434760
    108 C38         3.2920   -1.8760    3.2970 c3        1 MOL     -0.358188
    109 C39         1.7390   -2.4310    5.9400 c3        1 MOL     -0.300471
    110 H46        -0.1310   -4.0100    2.6630 hn        1 MOL      0.303555
    111 H47         1.2440   -1.5850    1.5840 h1        1 MOL      0.029272
    112 H48         2.0220   -3.7540    3.4950 hc        1 MOL     -0.024667
    113 H49         0.1460   -2.6770    4.6340 hc        1 MOL     -0.119017
    114 H50         0.8670   -1.1600    4.2840 hc        1 MOL     -0.119017
    115 H51         3.7840   -2.1700    4.2260 hc        1 MOL      0.066558
    116 H52         3.8540   -2.1350    2.4030 hc        1 MOL      0.066558
    117 H53         3.1000   -0.8040    3.2540 hc        1 MOL      0.066558
    118 H54         1.8930   -3.5010    6.0800 hc        1 MOL      0.066248
    119 H55         2.6650   -1.8690    6.0720 hc        1 MOL      0.066248
    120 H56         0.9670   -2.0420    6.6110 hc        1 MOL      0.066248
    121 N11         2.6100   -2.9090    0.0310 n         1 MOL     -0.055369
    122 C40         3.5170   -3.5830   -0.9320 c3        1 MOL      0.031709
    123 C41         4.9310   -3.1390   -0.6090 c         1 MOL      0.423098
    124 O16         5.1810   -2.0780    0.0390 o         1 MOL     -0.414716
    125 C42         3.0710   -3.2070   -2.3630 c3        1 MOL     -0.121749
    126 O17         3.0820   -1.8020   -2.5610 oh        1 MOL     -0.345756
    127 H57         2.7910   -1.9140    0.0880 hn        1 MOL      0.185654
    128 H58         3.5180   -4.6610   -0.7730 h1        1 MOL      0.072082
    129 H59         2.1390   -3.7440   -2.5320 h1        1 MOL      0.075627
    130 H60         3.7920   -3.6150   -3.0640 h1        1 MOL      0.075627
    131 H61         3.1200   -1.6430   -3.5010 ho        1 MOL      0.359512
    132 N12         5.9240   -3.8310   -1.0930 n         1 MOL     -0.465946
    133 C43         7.3640   -3.5040   -0.7240 c3        1 MOL      0.147551
    134 C44         7.7640   -2.0770   -1.0600 c         1 MOL      0.498249
    135 O18         8.4500   -1.4660   -0.2490 o         1 MOL     -0.502043
    136 C45         8.3120   -4.4400   -1.4570 c3        1 MOL     -0.311301
    137 H62         5.7360   -4.5330   -1.8000 hn        1 MOL      0.300516
    138 H63         7.4910   -3.7370    0.3390 h1        1 MOL      0.098745
    139 H64         9.2380   -4.4130   -0.8880 hc        1 MOL      0.097213
    140 H65         7.9040   -5.4460   -1.5770 hc        1 MOL      0.097213
    141 H66         8.5810   -4.1480   -2.4780 hc        1 MOL      0.097213
    142 N13         7.2350   -1.4590   -2.1280 n         1 MOL     -0.477041
    143 C46         7.5070   -0.0710   -2.3960 c3        1 MOL      0.264210
    144 C47         6.9240    0.9210   -1.4210 c         1 MOL      0.305988
    145 O19         7.5330    1.9410   -1.0780 o         1 MOL     -0.516866
    146 C48         6.8050    0.1040   -3.8010 c3        1 MOL     -0.337287
    147 H67         6.8330   -2.0300   -2.8540 hn        1 MOL      0.278792
    148 H68         8.5720    0.1270   -2.5470 h1        1 MOL      0.056084
    149 H69         5.8730   -0.4630   -3.8020 hc        1 MOL      0.090396
    150 H70         6.7750    1.1740   -3.9960 hc        1 MOL      0.090396
    151 H71         7.3470   -0.3880   -4.6110 hc        1 MOL      0.090396
    152 N14         5.7220    0.6810   -0.9170 n         1 MOL      0.003087
    153 C49         5.0220    1.5760    0.0260 c3        1 MOL     -0.238235
    154 C50         5.5580    1.4460    1.4670 c         1 MOL      0.446458
    155 O20         5.4650    2.4430    2.1920 o         1 MOL     -0.544881
    156 C51         3.5370    1.3340   -0.0090 c3        1 MOL      0.002269
    157 C52         2.8270    1.3790   -1.3230 c3        1 MOL     -0.046567
    158 C53         1.2950    1.1320   -1.1510 c         1 MOL      0.393430
    159 O21         0.7800    0.6680   -0.1500 o         1 MOL     -0.666593
    160 O22         0.4420    1.4560   -2.0330 o         1 MOL     -0.666593
    161 H72         5.2130   -0.1290   -1.2350 hn        1 MOL      0.004462
    162 H73         5.1840    2.6000   -0.3230 h1        1 MOL      0.138947
    163 H74         3.0340    2.0470    0.6570 hc        1 MOL      0.053995
    164 H75         3.3150    0.3480    0.4100 hc        1 MOL      0.053995
    165 H76         3.2370    0.6390   -2.0160 hc        1 MOL      0.010466
    166 H77         2.9740    2.3640   -1.7730 hc        1 MOL      0.010466
    167 N15         6.2160    0.3260    1.6880 n         1 MOL     -0.015351
    168 C54         7.0770    0.1090    2.8630 c3        1 MOL     -0.207660
    169 H78         6.5190   -0.4340    3.6260 h1        1 MOL      0.089075
    170 H79         7.9520   -0.4710    2.5710 h1        1 MOL      0.089075
    171 H80         7.3960    1.0710    3.2640 h1        1 MOL      0.089075
    172 H81         6.3550   -0.4150    1.0090 hn        1 MOL      0.119869
    173 Ca1        -1.4710   -0.1800   -1.1390 Ca        1 MOL      1.811154
    174 O23        -1.9040   -0.0450   -3.6370 oh        1 MOL     -0.903388
    175 H82        -2.2760    0.8220   -3.8490 ho        1 MOL      0.397389
    176 H83        -2.1760   -0.6070   -4.3640 ho        1 MOL      0.397389
    177 O24         0.3000   -1.8500   -2.2110 oh        1 MOL     -0.903388
    178 H84         0.2230   -1.7670   -3.1680 ho        1 MOL      0.397389
    179 H85         1.2390   -1.7680   -2.0400 ho        1 MOL      0.397389
@<TRIPOS>BOND
     1    1    2 1   
     2    1    4 1   
     3    1    5 1   
     4    1    6 1   
     5    2    3 2   
     6    2    7 1   
     7    7    8 1   
     8    7   15 1   
     9    8    9 1   
    10    8   11 1   
    11    8   16 1   
    12    9   10 2   
    13    9   19 1   
    14   11   12 1   
    15   11   17 1   
    16   11   18 1   
    17   12   13 1   
    18   12   14 1   
    19   19   20 1   
    20   19   28 1   
    21   20   21 1   
    22   20   23 1   
    23   20   29 1   
    24   21   22 2   
    25   21   41 1   
    26   23   24 1   
    27   23   30 1   
    28   23   31 1   
    29   24   25 1   
    30   24   32 1   
    31   24   33 1   
    32   25   26 1   
    33   25   34 1   
    34   25   35 1   
    35   26   27 1   
    36   26   36 1   
    37   26   37 1   
    38   27   38 1   
    39   27   39 1   
    40   27   40 1   
    41   41   42 1   
    42   41   49 1   
    43   42   43 1   
    44   42   45 1   
    45   42   50 1   
    46   43   44 2   
    47   43   53 1   
    48   45   46 1   
    49   45   51 1   
    50   45   52 1   
    51   46   47 1   
    52   46   48 1   
    53   53   54 1   
    54   53   57 1   
    55   54   55 1   
    56   54   58 1   
    57   54   59 1   
    58   55   56 2   
    59   55   60 1   
    60   60   61 1   
    61   60   68 1   
    62   61   62 1   
    63   61   64 1   
    64   61   69 1   
    65   62   63 2   
    66   62   74 1   
    67   64   65 1   
    68   64   70 1   
    69   64   71 1   
    70   65   66 1   
    71   65   67 2   
    72   66   72 1   
    73   66   73 1   
    74   74   75 1   
    75   74   78 1   
    76   75   76 1   
    77   75   79 1   
    78   75   80 1   
    79   76   77 2   
    80   76   81 1   
    81   81   82 1   
    82   81   93 1   
    83   82   83 1   
    84   82   85 1   
    85   82   94 1   
    86   83   84 2   
    87   83  102 1   
    88   85   86 1   
    89   85   95 1   
    90   85   96 1   
    91   86   87 ar  
    92   86   88 ar  
    93   87   89 ar  
    94   87   97 1   
    95   88   90 ar  
    96   88   98 1   
    97   89   91 ar  
    98   89   99 1   
    99   90   91 ar  
   100   90  100 1   
   101   91   92 1   
   102   92  101 1   
   103  102  103 1   
   104  102  110 1   
   105  103  104 1   
   106  103  106 1   
   107  103  111 1   
   108  104  105 2   
   109  104  121 1   
   110  106  107 1   
   111  106  108 1   
   112  106  112 1   
   113  107  109 1   
   114  107  113 1   
   115  107  114 1   
   116  108  115 1   
   117  108  116 1   
   118  108  117 1   
   119  109  118 1   
   120  109  119 1   
   121  109  120 1   
   122  121  122 1   
   123  121  127 1   
   124  122  123 1   
   125  122  125 1   
   126  122  128 1   
   127  123  124 2   
   128  123  132 1   
   129  125  126 1   
   130  125  129 1   
   131  125  130 1   
   132  126  131 1   
   133  132  133 1   
   134  132  137 1   
   135  133  134 1   
   136  133  136 1   
   137  133  138 1   
   138  134  135 2   
   139  134  142 1   
   140  136  139 1   
   141  136  140 1   
   142  136  141 1   
   143  142  143 1   
   144  142  147 1   
   145  143  144 1   
   146  143  146 1   
   147  143  148 1   
   148  144  145 2   
   149  144  152 1   
   150  146  149 1   
   151  146  150 1   
   152  146  151 1   
   153  152  153 1   
   154  152  161 1   
   155  153  154 1   
   156  153  156 1   
   157  153  162 1   
   158  154  155 2   
   159  154  167 1   
   160  156  157 1   
   161  156  163 1   
   162  156  164 1   
   163  157  158 1   
   164  157  165 1   
   165  157  166 1   
   166  158  159 1   
   167  158  160 1   
   168  167  168 1   
   169  167  172 1   
   170  168  169 1   
   171  168  170 1   
   172  168  171 1   
   173  174  175 1   
   174  174  176 1   
   175  177  178 1   
   176  177  179 1   
@<TRIPOS>SUBSTRUCTURE
     1 MOL         1 TEMP              0 ****  ****    0 ROOT
