@<TRIPOS>MOLECULE
MOL
  189   185     1     0     0
SMALL
resp


@<TRIPOS>ATOM
      1 C1         -0.7090    2.4820    6.1370 c3        1 MOL     -0.444293
      2 C2         -0.8230    1.9620    4.7670 c         1 MOL      0.702555
      3 O1          0.1550    2.0560    3.9990 o         1 MOL     -0.659516
      4 H1         -0.8550    3.5620    6.1290 hc        1 MOL      0.119335
      5 H2         -1.4670    2.0170    6.7670 hc        1 MOL      0.119335
      6 H3          0.2810    2.2520    6.5330 hc        1 MOL      0.119335
      7 N1         -1.9870    1.5780    4.2950 n         1 MOL     -0.471025
      8 C3         -2.3120    1.2730    2.9000 c3        1 MOL      0.120630
      9 C4         -2.5620    2.6540    2.2710 c         1 MOL      0.407060
     10 O2         -3.5170    3.3390    2.6390 o         1 MOL     -0.541576
     11 C5         -3.5070    0.3060    2.7630 c3        1 MOL     -0.376015
     12 C6         -4.1500    0.3320    1.3970 c         1 MOL      0.830641
     13 O3         -5.4080    0.1180    1.3670 o         1 MOL     -0.649946
     14 O4         -3.5240    0.6060    0.3440 o         1 MOL     -0.649946
     15 H4         -2.7670    1.5730    4.9430 hn        1 MOL      0.305201
     16 H5         -1.4120    0.7960    2.5090 h1        1 MOL     -0.010646
     17 H6         -4.1540    0.5680    3.6050 hc        1 MOL      0.105400
     18 H7         -3.1550   -0.7020    2.9950 hc        1 MOL      0.105400
     19 N2         -1.7570    3.1860    1.3450 n         1 MOL     -0.013012
     20 C7         -1.6880    4.5820    1.0500 c3        1 MOL     -0.103428
     21 C8         -2.7500    5.1340    0.1370 c         1 MOL      0.515757
     22 O5         -2.8060    6.4080    0.0230 o         1 MOL     -0.581949
     23 C9         -0.3360    4.9210    0.4020 c3        1 MOL     -0.065710
     24 C10         0.7610    4.8200    1.4640 c3        1 MOL      0.106991
     25 C11         2.1140    5.1190    0.7220 c3        1 MOL     -0.298812
     26 C12         3.0680    5.4190    1.8350 c3        1 MOL      0.191767
     27 N3          4.3520    5.7460    1.1580 n4        1 MOL     -0.346184
     28 H8         -0.9690    2.6390    1.0210 hn        1 MOL      0.176711
     29 H9         -1.7640    5.1230    1.9850 h1        1 MOL      0.064044
     30 H10        -0.3570    5.9460    0.0280 hc        1 MOL      0.038765
     31 H11        -0.1850    4.2200   -0.4190 hc        1 MOL      0.038765
     32 H12         0.7820    3.8340    1.9320 hc        1 MOL      0.025445
     33 H13         0.4790    5.5350    2.2390 hc        1 MOL      0.025445
     34 H14         2.0470    6.0130    0.1050 hc        1 MOL      0.093027
     35 H15         2.4170    4.2090    0.2050 hc        1 MOL      0.093027
     36 H16         3.1990    4.5870    2.5190 hx        1 MOL      0.038484
     37 H17         2.6740    6.2300    2.4400 hx        1 MOL      0.038484
     38 H18         5.0910    6.0100    1.8060 hn        1 MOL      0.299492
     39 H19         4.6080    4.9930    0.5390 hn        1 MOL      0.299492
     40 H20         4.1640    6.5720    0.6130 hn        1 MOL      0.299492
     41 N4         -3.5220    4.2980   -0.5370 n         1 MOL     -0.316834
     42 C13        -4.3340    4.5880   -1.7670 c3        1 MOL     -0.013499
     43 C14        -5.6270    3.7930   -1.8280 c         1 MOL      0.515794
     44 O6         -6.5410    4.1110   -2.6350 o         1 MOL     -0.536592
     45 C15        -3.4510    4.3900   -3.0280 c3        1 MOL     -0.122632
     46 C16        -2.6750    3.0550   -3.1210 c         1 MOL      0.801312
     47 O7         -2.7270    2.1700   -2.2850 o         1 MOL     -0.728702
     48 O8         -1.9550    2.8780   -4.1610 o         1 MOL     -0.728702
     49 H21        -3.3630    3.3190   -0.3650 hn        1 MOL      0.082171
     50 H22        -4.7700    5.5840   -1.6800 h1        1 MOL      0.100433
     51 H23        -2.7710    5.2340   -3.1730 hc        1 MOL      0.040281
     52 H24        -4.0910    4.4650   -3.9130 hc        1 MOL      0.040281
     53 N5         -5.8370    2.9860   -0.8100 n         1 MOL     -0.294205
     54 C17        -7.2310    2.5700   -0.3950 c3        1 MOL     -0.042816
     55 C18        -7.7870    1.2910   -1.1050 c         1 MOL      0.426898
     56 O9         -8.8410    1.3520   -1.7160 o         1 MOL     -0.541922
     57 H25        -5.1180    2.7060   -0.1610 hn        1 MOL      0.265331
     58 H26        -7.9210    3.3610   -0.6920 h1        1 MOL      0.073489
     59 H27        -7.3570    2.5710    0.6900 h1        1 MOL      0.073489
     60 N6         -6.9930    0.2440   -1.2510 n         1 MOL     -0.129489
     61 C19        -7.2400   -1.0350   -1.9600 c3        1 MOL      0.009150
     62 C20        -7.1020   -2.2790   -1.0480 c         1 MOL      0.355640
     63 O10        -7.5060   -3.3590   -1.4760 o         1 MOL     -0.504195
     64 C21        -6.2350   -1.2150   -3.1460 c3        1 MOL     -0.104909
     65 C22        -4.7600   -1.0830   -2.6720 c         1 MOL      0.638280
     66 O11        -4.3040   -1.7200   -1.7610 o         1 MOL     -0.638155
     67 O12        -3.9860   -0.3120   -3.2810 o         1 MOL     -0.638155
     68 H28        -6.1080    0.3380   -0.7660 hn        1 MOL      0.064044
     69 H29        -8.2560   -1.0570   -2.3460 h1        1 MOL      0.102376
     70 H30        -6.3610   -0.4300   -3.8930 hc        1 MOL      0.047328
     71 H31        -6.3800   -2.1200   -3.7270 hc        1 MOL      0.047328
     72 N7         -6.6920   -2.0800    0.2450 n         1 MOL     -0.153442
     73 C23        -6.7150   -3.0510    1.3350 c3        1 MOL     -0.255185
     74 C24        -5.5860   -4.0400    1.2210 c         1 MOL      0.612454
     75 O13        -5.6100   -5.0740    1.8320 o         1 MOL     -0.583387
     76 H32        -6.2210   -1.2280    0.5050 hn        1 MOL      0.133104
     77 H33        -7.6530   -3.5830    1.2320 h1        1 MOL      0.117782
     78 H34        -6.6460   -2.4650    2.2490 h1        1 MOL      0.117782
     79 N8         -4.5060   -3.6090    0.5810 n         1 MOL     -0.155849
     80 C25        -3.1900   -4.2960    0.5170 c3        1 MOL     -0.387198
     81 C26        -2.0200   -3.4110    0.8840 c         1 MOL      0.824596
     82 O14        -2.0020   -2.2160    0.5480 o         1 MOL     -0.663131
     83 C27        -3.0070   -5.0540   -0.8070 c3        1 MOL      0.370386
     84 C28        -3.9600   -6.2540   -1.0660 c3        1 MOL     -0.223167
     85 O15        -3.0040   -4.1970   -1.9170 oh        1 MOL     -0.637489
     86 H35        -4.4870   -2.6920    0.1510 hn        1 MOL      0.144131
     87 H36        -3.1980   -5.1020    1.2590 h1        1 MOL      0.118373
     88 H37        -2.0070   -5.4910   -0.7680 h1        1 MOL      0.021423
     89 H38        -3.6190   -3.4600   -1.8140 ho        1 MOL      0.429715
     90 H39        -3.7120   -7.0770   -0.3900 hc        1 MOL      0.057843
     91 H40        -5.0030   -5.9720   -0.9850 hc        1 MOL      0.057843
     92 H41        -3.8330   -6.7920   -2.0090 hc        1 MOL      0.057843
     93 N9         -1.0310   -3.9900    1.6140 n         1 MOL     -0.622726
     94 C29         0.3660   -3.5030    1.8270 c3        1 MOL      0.031399
     95 C30         1.3570   -3.9900    0.7030 c         1 MOL      0.427907
     96 O16         1.3860   -5.1700    0.3060 o         1 MOL     -0.543186
     97 C31         0.9020   -3.7630    3.2720 c3        1 MOL      0.196175
     98 C32        -0.0330   -2.9600    4.2810 c3        1 MOL      0.158251
     99 C33         2.4270   -3.5470    3.5210 c3        1 MOL     -0.498274
    100 C34        -0.0360   -1.4310    4.3780 c3        1 MOL     -0.283264
    101 H42        -1.1380   -4.9440    1.9270 hn        1 MOL      0.322186
    102 H43         0.4520   -2.4220    1.7330 h1        1 MOL      0.158349
    103 H44         0.6420   -4.7880    3.5130 hc        1 MOL     -0.004281
    104 H45         0.2360   -3.4430    5.2170 hc        1 MOL     -0.033434
    105 H46        -1.0390   -3.3490    4.1270 hc        1 MOL     -0.033434
    106 H47         2.5320   -2.4670    3.5630 hc        1 MOL      0.119730
    107 H48         2.7370   -3.8540    4.5250 hc        1 MOL      0.119730
    108 H49         3.0140   -3.9810    2.7150 hc        1 MOL      0.119730
    109 H50         0.9020   -0.8930    4.5510 hc        1 MOL      0.069554
    110 H51        -0.2690   -1.0040    3.3980 hc        1 MOL      0.069554
    111 H52        -0.8430   -1.0400    4.9930 hc        1 MOL      0.069554
    112 N10         2.1130   -3.0160    0.2220 n         1 MOL      0.048030
    113 C35         3.1430   -3.2680   -0.7920 c3        1 MOL     -0.194086
    114 C36         4.4000   -2.5100   -0.4510 c         1 MOL      0.549222
    115 O17         4.5150   -1.9660    0.6350 o         1 MOL     -0.466141
    116 C37         2.6890   -2.8860   -2.2000 c3        1 MOL      0.385894
    117 C38         1.5080   -3.6130   -2.7110 c3        1 MOL     -0.374377
    118 O18         2.4730   -1.4790   -2.1830 oh        1 MOL     -0.718764
    119 H53         1.9810   -2.0310    0.3710 hn        1 MOL     -0.117951
    120 H54         3.3170   -4.3460   -0.8030 h1        1 MOL      0.091967
    121 H55         3.4420   -3.1080   -2.9570 h1        1 MOL      0.002404
    122 H56         1.7400   -1.3030   -1.5990 ho        1 MOL      0.512806
    123 H57         1.7430   -4.6650   -2.7320 hc        1 MOL      0.113666
    124 H58         0.7270   -3.4110   -1.9680 hc        1 MOL      0.113666
    125 H59         1.2600   -3.2940   -3.7220 hc        1 MOL      0.113666
    126 N11         5.4330   -2.6520   -1.2680 n         1 MOL     -0.431915
    127 C39         6.8400   -2.4060   -0.9160 c3        1 MOL     -0.039524
    128 C40         7.0090   -1.0340   -0.3280 c         1 MOL      0.277383
    129 O19         7.8080   -0.8280    0.5920 o         1 MOL     -0.498435
    130 C41         7.7650   -2.8020   -2.0630 c3        1 MOL      0.315463
    131 C42         9.1930   -2.5820   -1.5950 c3        1 MOL     -0.566798
    132 O20         7.5740   -4.1620   -2.3170 oh        1 MOL     -0.553179
    133 H60         5.2450   -3.1920   -2.1060 hn        1 MOL      0.221600
    134 H61         7.1000   -3.0890   -0.1200 h1        1 MOL      0.132524
    135 H62         7.4730   -2.1990   -2.9290 h1        1 MOL      0.004205
    136 H63         6.6480   -4.3640   -2.4390 ho        1 MOL      0.380452
    137 H64         9.2950   -1.5060   -1.4640 hc        1 MOL      0.175340
    138 H65         9.5120   -3.1840   -0.7410 hc        1 MOL      0.175340
    139 H66         9.8300   -3.0040   -2.3640 hc        1 MOL      0.175340
    140 N12         6.3340   -0.0710   -0.9030 n         1 MOL      0.060919
    141 C43         6.4780    1.4090   -0.6070 c3        1 MOL      0.007115
    142 C44         5.4890    1.9700    0.4510 c         1 MOL      0.453262
    143 O21         5.1970    3.1780    0.5170 o         1 MOL     -0.616912
    144 C45         6.3720    2.2880   -1.9270 c3        1 MOL     -0.287097
    145 C46         7.2840    1.8750   -3.0790 c3        1 MOL     -0.148995
    146 C47         8.7450    2.1600   -2.7770 c3        1 MOL      0.001775
    147 C48         9.6300    1.8990   -4.0320 c3        1 MOL     -0.011629
    148 N13        11.0450    2.0920   -3.7350 n4        1 MOL     -0.248432
    149 H67         5.7000   -0.3380   -1.6550 hn        1 MOL      0.173059
    150 H68         7.4850    1.4860   -0.1910 h1        1 MOL      0.070650
    151 H69         6.6040    3.3350   -1.7050 hc        1 MOL      0.147356
    152 H70         5.3780    2.1320   -2.3390 hc        1 MOL      0.147356
    153 H71         6.9750    2.5640   -3.8620 hc        1 MOL      0.066758
    154 H72         7.2560    0.8160   -3.3120 hc        1 MOL      0.066758
    155 H73         9.0550    1.5250   -1.9430 hc        1 MOL      0.033102
    156 H74         8.8330    3.1850   -2.4130 hc        1 MOL      0.033102
    157 H75         9.2710    2.5850   -4.8070 hx        1 MOL      0.090143
    158 H76         9.4510    0.8760   -4.3790 hx        1 MOL      0.090143
    159 H77        11.3900    1.5340   -2.9680 hn        1 MOL      0.258211
    160 H78        11.5420    1.9150   -4.5920 hn        1 MOL      0.258211
    161 H79        11.1260    3.0660   -3.4830 hn        1 MOL      0.258211
    162 N14         4.9780    1.0310    1.2240 n         1 MOL      0.021930
    163 C49         4.0040    1.2030    2.2870 c3        1 MOL     -0.258296
    164 C50         4.4530    0.3750    3.4440 c         1 MOL      0.390291
    165 O22         4.0330    0.6090    4.6340 o         1 MOL     -0.499381
    166 C51         2.5790    0.6590    1.8220 c3        1 MOL     -0.017677
    167 C52         2.1540    0.9240    0.3560 c3        1 MOL      0.207874
    168 C53         0.7460    0.4850   -0.0940 c         1 MOL      0.570060
    169 O23         0.5190   -0.6770   -0.5450 o         1 MOL     -0.686897
    170 O24        -0.2210    1.2640   -0.0610 o         1 MOL     -0.686897
    171 H80         5.4080    0.1330    1.0530 hn        1 MOL     -0.193217
    172 H81         4.0030    2.2470    2.6000 h1        1 MOL      0.185983
    173 H82         1.9160    1.2570    2.4650 hc        1 MOL      0.098835
    174 H83         2.5290   -0.3930    2.0910 hc        1 MOL      0.098835
    175 H84         2.8150    0.5050   -0.4090 hc        1 MOL     -0.058414
    176 H85         2.2940    1.9710    0.0930 hc        1 MOL     -0.058414
    177 N15         5.1840   -0.7070    3.1850 n         1 MOL     -0.199284
    178 C54         5.6040   -1.7260    4.1130 c3        1 MOL     -0.280977
    179 H86         6.1380   -2.5090    3.5740 h1        1 MOL      0.120662
    180 H87         6.2620   -1.2870    4.8620 h1        1 MOL      0.120662
    181 H88         4.7300   -2.1550    4.6030 h1        1 MOL      0.120662
    182 H89         5.3640   -0.9340    2.2150 hn        1 MOL      0.374975
    183 Ca1        -1.8950   -0.2030   -1.4550 Ca        1 MOL      1.790106
    184 O25        -0.5360    0.8530   -3.5630 oh        1 MOL     -0.927774
    185 H90        -0.0150    0.9350   -4.3640 ho        1 MOL      0.426121
    186 H91        -1.0800    1.6320   -3.5420 ho        1 MOL      0.426121
    187 O26        -1.1560   -2.1460   -3.2280 oh        1 MOL     -0.927774
    188 H92        -1.6240   -2.9240   -3.5540 ho        1 MOL      0.426121
    189 H93        -0.6850   -1.8090   -3.9940 ho        1 MOL      0.426121
@<TRIPOS>BOND
     1    1    2 1   
     2    1    4 1   
     3    1    5 1   
     4    1    6 1   
     5    2    3 2   
     6    2    7 1   
     7    7    8 1   
     8    7   15 1   
     9    8    9 1   
    10    8   11 1   
    11    8   16 1   
    12    9   10 2   
    13    9   19 1   
    14   11   12 1   
    15   11   17 1   
    16   11   18 1   
    17   12   13 1   
    18   12   14 1   
    19   19   20 1   
    20   19   28 1   
    21   20   21 1   
    22   20   23 1   
    23   20   29 1   
    24   21   22 2   
    25   21   41 1   
    26   23   24 1   
    27   23   30 1   
    28   23   31 1   
    29   24   25 1   
    30   24   32 1   
    31   24   33 1   
    32   25   26 1   
    33   25   34 1   
    34   25   35 1   
    35   26   27 1   
    36   26   36 1   
    37   26   37 1   
    38   27   38 1   
    39   27   39 1   
    40   27   40 1   
    41   41   42 1   
    42   41   49 1   
    43   42   43 1   
    44   42   45 1   
    45   42   50 1   
    46   43   44 2   
    47   43   53 1   
    48   45   46 1   
    49   45   51 1   
    50   45   52 1   
    51   46   47 1   
    52   46   48 1   
    53   53   54 1   
    54   53   57 1   
    55   54   55 1   
    56   54   58 1   
    57   54   59 1   
    58   55   56 2   
    59   55   60 1   
    60   60   61 1   
    61   60   68 1   
    62   61   62 1   
    63   61   64 1   
    64   61   69 1   
    65   62   63 2   
    66   62   72 1   
    67   64   65 1   
    68   64   70 1   
    69   64   71 1   
    70   65   66 1   
    71   65   67 1   
    72   72   73 1   
    73   72   76 1   
    74   73   74 1   
    75   73   77 1   
    76   73   78 1   
    77   74   75 2   
    78   74   79 1   
    79   79   80 1   
    80   79   86 1   
    81   80   81 1   
    82   80   83 1   
    83   80   87 1   
    84   81   82 2   
    85   81   93 1   
    86   83   84 1   
    87   83   85 1   
    88   83   88 1   
    89   84   90 1   
    90   84   91 1   
    91   84   92 1   
    92   85   89 1   
    93   93   94 1   
    94   93  101 1   
    95   94   95 1   
    96   94   97 1   
    97   94  102 1   
    98   95   96 2   
    99   95  112 1   
   100   97   98 1   
   101   97   99 1   
   102   97  103 1   
   103   98  100 1   
   104   98  104 1   
   105   98  105 1   
   106   99  106 1   
   107   99  107 1   
   108   99  108 1   
   109  100  109 1   
   110  100  110 1   
   111  100  111 1   
   112  112  113 1   
   113  112  119 1   
   114  113  114 1   
   115  113  116 1   
   116  113  120 1   
   117  114  115 2   
   118  114  126 1   
   119  116  117 1   
   120  116  118 1   
   121  116  121 1   
   122  117  123 1   
   123  117  124 1   
   124  117  125 1   
   125  118  122 1   
   126  126  127 1   
   127  126  133 1   
   128  127  128 1   
   129  127  130 1   
   130  127  134 1   
   131  128  129 2   
   132  128  140 1   
   133  130  131 1   
   134  130  132 1   
   135  130  135 1   
   136  131  137 1   
   137  131  138 1   
   138  131  139 1   
   139  132  136 1   
   140  140  141 1   
   141  140  149 1   
   142  141  142 1   
   143  141  144 1   
   144  141  150 1   
   145  142  143 2   
   146  142  162 1   
   147  144  145 1   
   148  144  151 1   
   149  144  152 1   
   150  145  146 1   
   151  145  153 1   
   152  145  154 1   
   153  146  147 1   
   154  146  155 1   
   155  146  156 1   
   156  147  148 1   
   157  147  157 1   
   158  147  158 1   
   159  148  159 1   
   160  148  160 1   
   161  148  161 1   
   162  162  163 1   
   163  162  171 1   
   164  163  164 1   
   165  163  166 1   
   166  163  172 1   
   167  164  165 2   
   168  164  177 1   
   169  166  167 1   
   170  166  173 1   
   171  166  174 1   
   172  167  168 1   
   173  167  175 1   
   174  167  176 1   
   175  168  169 1   
   176  168  170 1   
   177  177  178 1   
   178  177  182 1   
   179  178  179 1   
   180  178  180 1   
   181  178  181 1   
   182  184  185 1   
   183  184  186 1   
   184  187  188 1   
   185  187  189 1   
@<TRIPOS>SUBSTRUCTURE
     1 MOL         1 TEMP              0 ****  ****    0 ROOT
