@<TRIPOS>MOLECULE
MOL
  183   181     1     0     0
SMALL
resp


@<TRIPOS>ATOM
      1 C1         -0.7120    2.3080    6.2250 c3        1 MOL     -0.423854
      2 C2         -0.9420    2.0860    4.7380 c         1 MOL      0.747498
      3 O1         -0.0340    2.3670    3.9770 o         1 MOL     -0.562698
      4 H1          0.1480    1.7220    6.5510 hc        1 MOL      0.099435
      5 H2         -0.5220    3.3650    6.4110 hc        1 MOL      0.099435
      6 H3         -1.5960    1.9940    6.7810 hc        1 MOL      0.099435
      7 N1         -2.1570    1.6650    4.2850 n         1 MOL     -0.668880
      8 C3         -2.6170    1.5430    2.9160 c3        1 MOL      0.495041
      9 C4         -2.9050    2.9620    2.3790 c         1 MOL      0.455427
     10 O2         -3.5070    3.7870    3.1380 o         1 MOL     -0.609407
     11 C5         -3.8820    0.6360    2.9520 c3        1 MOL     -0.502945
     12 C6         -4.4520    0.3940    1.5630 c         1 MOL      0.857756
     13 O3         -5.5980   -0.0650    1.3970 o         1 MOL     -0.610669
     14 O4         -3.8380    0.8640    0.5660 o         1 MOL     -0.610669
     15 H4         -2.8070    1.4780    5.0440 hn        1 MOL      0.308719
     16 H5         -1.8770    1.0970    2.2440 h1        1 MOL     -0.102869
     17 H6         -4.6960    1.1550    3.4460 hc        1 MOL      0.099723
     18 H7         -3.6610   -0.3410    3.3930 hc        1 MOL      0.099723
     19 N2         -2.3960    3.5080    1.2560 n         1 MOL     -0.153482
     20 C7         -2.6870    4.8100    0.7210 c3        1 MOL     -0.162036
     21 C8         -3.7670    4.7840   -0.3620 c         1 MOL      0.612870
     22 O5         -4.6050    5.7040   -0.3800 o         1 MOL     -0.603648
     23 C9         -1.2680    5.4740    0.4290 c3        1 MOL      0.084576
     24 C10        -0.2470    5.5540    1.6200 c3        1 MOL      0.128093
     25 C11        -1.4660    6.9150   -0.0860 c3        1 MOL     -0.230287
     26 C12         1.1370    5.8560    1.2620 c3        1 MOL     -0.114812
     27 H8         -1.7990    2.9590    0.6590 hn        1 MOL      0.082812
     28 H9         -3.0960    5.4590    1.5050 h1        1 MOL      0.094825
     29 H10        -0.7060    4.9800   -0.3690 hc        1 MOL      0.034298
     30 H11        -0.2840    4.5960    2.1370 hc        1 MOL     -0.018267
     31 H12        -0.5300    6.3400    2.3160 hc        1 MOL     -0.018267
     32 H13        -0.5120    7.4180   -0.2320 hc        1 MOL      0.039525
     33 H14        -2.0490    6.8870   -1.0070 hc        1 MOL      0.039525
     34 H15        -2.0270    7.4900    0.6470 hc        1 MOL      0.039525
     35 H16         1.2280    6.9390    1.1640 hc        1 MOL      0.013766
     36 H17         1.8100    5.5540    2.0620 hc        1 MOL      0.013766
     37 H18         1.4690    5.3600    0.3530 hc        1 MOL      0.013766
     38 N3         -3.8140    3.7080   -1.1720 n         1 MOL     -0.229638
     39 C13        -4.6610    3.6520   -2.3980 c3        1 MOL     -0.105854
     40 C14        -5.9620    2.8870   -2.2160 c         1 MOL      0.423055
     41 O6         -6.8340    3.0460   -3.0580 o         1 MOL     -0.553699
     42 C15        -3.9720    3.0820   -3.6060 c3        1 MOL     -0.054271
     43 C16        -3.2050    1.7680   -3.5670 c         1 MOL      0.837971
     44 O7         -2.3850    1.6650   -4.4120 o         1 MOL     -0.707557
     45 O8         -3.6090    0.8090   -2.8040 o         1 MOL     -0.707557
     46 H19        -3.1370    2.9830   -0.9930 hn        1 MOL      0.126758
     47 H20        -4.9400    4.6700   -2.6740 h1        1 MOL      0.098948
     48 H21        -3.2900    3.8090   -4.0580 hc        1 MOL      0.005039
     49 H22        -4.7790    2.8820   -4.3170 hc        1 MOL      0.005039
     50 N4         -6.1320    2.1490   -1.1700 n         1 MOL     -0.074309
     51 C17        -7.4210    1.6120   -0.7560 c3        1 MOL      0.049139
     52 C18        -7.8900    0.2480   -1.0960 c         1 MOL      0.477972
     53 O9         -8.9910    0.0150   -1.6540 o         1 MOL     -0.603198
     54 H23        -5.3250    1.8220   -0.6610 hn        1 MOL     -0.005206
     55 H24        -8.1910    2.3150   -1.0860 h1        1 MOL      0.012000
     56 H25        -7.4690    1.6910    0.3280 h1        1 MOL      0.012000
     57 N5         -7.0440   -0.7790   -0.8460 n         1 MOL     -0.156256
     58 C19        -7.3080   -2.2070   -1.0450 c3        1 MOL     -0.036396
     59 C20        -7.0100   -3.0920    0.1700 c         1 MOL      0.364238
     60 O10        -6.9330   -4.2960   -0.0110 o         1 MOL     -0.498662
     61 C21        -6.4570   -2.6800   -2.2550 c3        1 MOL     -0.055925
     62 C22        -4.9840   -2.4300   -2.1740 c         1 MOL      0.662762
     63 O11        -4.2610   -2.4210   -3.1980 o         1 MOL     -0.701012
     64 O12        -4.4620   -2.1110   -1.0590 o         1 MOL     -0.701012
     65 H26        -6.1690   -0.6170   -0.3630 hn        1 MOL      0.097124
     66 H27        -8.3380   -2.3690   -1.3650 h1        1 MOL      0.085333
     67 H28        -6.8630   -2.0900   -3.0750 hc        1 MOL      0.020452
     68 H29        -6.6880   -3.7340   -2.4280 hc        1 MOL      0.020452
     69 N6         -6.8460   -2.4870    1.3320 n         1 MOL     -0.211065
     70 C23        -6.6200   -3.2300    2.6310 c3        1 MOL     -0.110617
     71 C24        -5.2940   -3.9760    2.6710 c         1 MOL      0.487112
     72 O13        -5.0240   -4.8910    3.4940 o         1 MOL     -0.593673
     73 H30        -6.8350   -1.4820    1.2640 hn        1 MOL      0.168063
     74 H31        -7.4070   -3.9640    2.7940 h1        1 MOL      0.078608
     75 H32        -6.6470   -2.4760    3.4080 h1        1 MOL      0.078608
     76 N7         -4.3690   -3.6210    1.7470 n         1 MOL     -0.039079
     77 C25        -2.9910   -4.1110    1.7920 c3        1 MOL     -0.064596
     78 C26        -1.9590   -2.9260    1.7710 c         1 MOL      0.610433
     79 O14        -2.2590   -1.8330    1.3280 o         1 MOL     -0.622223
     80 C27        -2.7950   -5.3170    0.8310 c3        1 MOL     -0.057664
     81 C28        -2.7720   -5.0340   -0.6420 c3        1 MOL     -0.230036
     82 C29        -1.5800   -4.2160   -1.0710 c         1 MOL      0.652660
     83 N8         -0.3870   -4.7270   -1.0900 n         1 MOL     -0.631232
     84 O15        -1.7490   -3.1390   -1.5820 o         1 MOL     -0.535718
     85 H33        -4.6730   -2.9420    1.0640 hn        1 MOL     -0.004595
     86 H34        -2.8990   -4.4680    2.8130 h1        1 MOL      0.047205
     87 H35        -3.6130   -6.0050    1.0440 hc        1 MOL      0.026683
     88 H36        -1.9020   -5.8920    1.0830 hc        1 MOL      0.026683
     89 H37        -3.7240   -4.5630   -0.9020 hc        1 MOL      0.089341
     90 H38        -2.6810   -5.9340   -1.2530 hc        1 MOL      0.089341
     91 H39        -0.3000   -5.7240   -0.9310 hn        1 MOL      0.287900
     92 H40         0.2580   -4.2200   -1.6880 hn        1 MOL      0.287900
     93 N9         -0.7120   -3.1810    2.2300 n         1 MOL     -0.466289
     94 C30         0.4490   -2.2780    2.1150 c3        1 MOL      0.172174
     95 C31         1.4670   -2.8280    1.2000 c         1 MOL      0.149058
     96 O16         2.0540   -3.8430    1.4770 o         1 MOL     -0.510882
     97 C32         1.0350   -2.1120    3.5590 c3        1 MOL      0.055891
     98 C33         2.3440   -1.2600    3.6770 c3        1 MOL     -0.189895
     99 C34         0.0340   -1.3050    4.4190 c3        1 MOL     -0.189895
    100 H41        -0.5320   -4.0600    2.6880 hn        1 MOL      0.281953
    101 H42         0.1610   -1.2620    1.8440 h1        1 MOL      0.158362
    102 H43         1.2090   -3.0690    4.0520 hc        1 MOL      0.016328
    103 H44         2.6280   -1.2620    4.7220 hc        1 MOL      0.040521
    104 H45         3.1670   -1.8340    3.2330 hc        1 MOL      0.040521
    105 H46         2.2330   -0.2400    3.3030 hc        1 MOL      0.040521
    106 H47        -0.9720   -1.7030    4.5640 hc        1 MOL      0.040521
    107 H48         0.4910   -1.1210    5.3990 hc        1 MOL      0.040521
    108 H49        -0.0810   -0.3030    4.0070 hc        1 MOL      0.040521
    109 N10         1.7470   -2.0740    0.1470 n         1 MOL     -0.049635
    110 C35         2.8990   -2.4530   -0.7050 c3        1 MOL      0.139029
    111 C36         4.2150   -1.9370   -0.0320 c         1 MOL      0.403440
    112 O17         4.2010   -1.1530    0.9250 o         1 MOL     -0.302708
    113 C37         2.7000   -1.7420   -2.0530 c3        1 MOL      0.046906
    114 C38         1.8850   -2.3840   -3.1900 c         1 MOL      0.475139
    115 N11         1.9830   -1.8850   -4.4110 n         1 MOL     -0.723381
    116 O18         1.1590   -3.3250   -3.0170 o         1 MOL     -0.507561
    117 H50         1.2720   -1.2020   -0.0250 hn        1 MOL      0.019220
    118 H51         3.0220   -3.5360   -0.7900 h1        1 MOL      0.041826
    119 H52         3.6770   -1.6490   -2.5370 hc        1 MOL     -0.012113
    120 H53         2.2870   -0.7490   -1.8760 hc        1 MOL     -0.012113
    121 H54         2.4880   -1.0110   -4.5050 hn        1 MOL      0.379442
    122 H55         1.3440   -2.2050   -5.1140 hn        1 MOL      0.379442
    123 N12         5.3890   -2.3530   -0.5540 n         1 MOL     -0.645725
    124 C39         6.7080   -1.8020   -0.0460 c3        1 MOL      0.445569
    125 C40         6.8430   -0.2660   -0.3280 c         1 MOL      0.324925
    126 O19         7.3970    0.4580    0.4960 o         1 MOL     -0.511134
    127 C41         7.8900   -2.5780   -0.5770 c3        1 MOL     -0.217316
    128 C42         9.2190   -1.9060   -0.2610 ca        1 MOL      0.008336
    129 C43         9.7420   -2.1280    0.9950 ca        1 MOL     -0.116788
    130 C44         9.9870   -1.1250   -1.2370 ca        1 MOL     -0.116788
    131 C45        10.9730   -1.6630    1.4140 ca        1 MOL     -0.325016
    132 C46        11.2320   -0.6130   -0.7100 ca        1 MOL     -0.325016
    133 C47        11.6960   -0.7610    0.6210 ca        1 MOL      0.441402
    134 O20        12.8420   -0.1780    1.0090 oh        1 MOL     -0.521649
    135 H56         5.4020   -3.0180   -1.3130 hn        1 MOL      0.319915
    136 H57         6.7280   -1.8030    1.0380 h1        1 MOL     -0.015510
    137 H58         7.8370   -2.6040   -1.6660 hc        1 MOL      0.055329
    138 H59         7.8050   -3.5720   -0.1380 hc        1 MOL      0.055329
    139 H60         9.2200   -2.7420    1.7150 ha        1 MOL      0.145464
    140 H61         9.6780   -0.9140   -2.2490 ha        1 MOL      0.145464
    141 H62        11.2620   -1.7370    2.4560 ha        1 MOL      0.137763
    142 H63        11.9420   -0.1630   -1.3870 ha        1 MOL      0.137763
    143 H64        13.0850    0.5260    0.4030 ho        1 MOL      0.368072
    144 N13         6.4090    0.2160   -1.4930 n         1 MOL     -0.064687
    145 C48         6.3310    1.6770   -1.7490 c3        1 MOL     -0.222134
    146 C49         5.3820    2.4070   -0.7740 c         1 MOL      0.494464
    147 O21         5.4140    3.5900   -0.7210 o         1 MOL     -0.522085
    148 C50         5.9290    1.9250   -3.2550 c3        1 MOL     -0.096988
    149 C51         4.5350    1.4060   -3.6130 c3        1 MOL     -0.301564
    150 C52         4.3160    0.8210   -4.9640 c         1 MOL      0.730369
    151 O22         3.3260    1.0870   -5.6290 o         1 MOL     -0.732712
    152 O23         5.0870   -0.0680   -5.3560 o         1 MOL     -0.732712
    153 H65         6.2330   -0.4520   -2.2320 hn        1 MOL      0.164135
    154 H66         7.3610    2.0320   -1.6890 h1        1 MOL      0.104586
    155 H67         6.7350    1.4410   -3.8090 hc        1 MOL      0.062210
    156 H68         5.9220    2.9960   -3.4670 hc        1 MOL      0.062210
    157 H69         3.8570    2.2280   -3.3570 hc        1 MOL      0.107797
    158 H70         4.2310    0.6660   -2.8810 hc        1 MOL      0.107797
    159 N14         4.5230    1.6920   -0.0060 n         1 MOL     -0.188221
    160 C53         3.5740    2.3160    1.0020 c3        1 MOL      0.055297
    161 C54         4.1270    2.1980    2.4610 c         1 MOL      0.400333
    162 O24         4.0850    3.1450    3.2400 o         1 MOL     -0.547932
    163 C55         2.1070    1.8710    0.9230 c3        1 MOL      0.085285
    164 C56         1.3890    2.1660   -0.4720 c3        1 MOL      0.094513
    165 C57         0.0210    1.4260   -0.5370 c         1 MOL      0.685433
    166 O25        -1.0470    2.0220   -0.9410 o         1 MOL     -0.685758
    167 O26        -0.0880    0.2160   -0.3240 o         1 MOL     -0.685758
    168 H71         4.5090    0.6880   -0.0670 hn        1 MOL      0.070747
    169 H72         3.5660    3.3880    0.8300 h1        1 MOL      0.042626
    170 H73         1.5820    2.3620    1.7410 hc        1 MOL      0.011833
    171 H74         2.0750    0.7770    0.9130 hc        1 MOL      0.011833
    172 H75         2.0360    1.8900   -1.3080 hc        1 MOL     -0.037169
    173 H76         1.2070    3.2390   -0.5750 hc        1 MOL     -0.037169
    174 N15         4.8290    1.1510    2.8190 n         1 MOL     -0.061731
    175 C58         5.5990    1.0150    4.0710 c3        1 MOL     -0.218325
    176 H77         6.2750    0.1630    3.9900 h1        1 MOL      0.087701
    177 H78         6.1790    1.9210    4.2420 h1        1 MOL      0.087701
    178 H79         4.9150    0.8570    4.9040 h1        1 MOL      0.087701
    179 H80         4.6380    0.3860    2.1930 hn        1 MOL      0.067969
    180 Ca1        -2.4030   -0.6080   -1.0650 Ca        1 MOL      1.703784
    181 O27        -0.8940   -0.4590   -3.4750 oh        1 MOL     -0.932468
    182 H81        -1.3170    0.2630   -3.9330 ho        1 MOL      0.424657
    183 H82        -0.5700   -1.0260   -4.1840 ho        1 MOL      0.424657
@<TRIPOS>BOND
     1    1    2 1   
     2    1    4 1   
     3    1    5 1   
     4    1    6 1   
     5    2    3 2   
     6    2    7 1   
     7    7    8 1   
     8    7   15 1   
     9    8    9 1   
    10    8   11 1   
    11    8   16 1   
    12    9   10 2   
    13    9   19 1   
    14   11   12 1   
    15   11   17 1   
    16   11   18 1   
    17   12   13 1   
    18   12   14 1   
    19   19   20 1   
    20   19   27 1   
    21   20   21 1   
    22   20   23 1   
    23   20   28 1   
    24   21   22 2   
    25   21   38 1   
    26   23   24 1   
    27   23   25 1   
    28   23   29 1   
    29   24   26 1   
    30   24   30 1   
    31   24   31 1   
    32   25   32 1   
    33   25   33 1   
    34   25   34 1   
    35   26   35 1   
    36   26   36 1   
    37   26   37 1   
    38   38   39 1   
    39   38   46 1   
    40   39   40 1   
    41   39   42 1   
    42   39   47 1   
    43   40   41 2   
    44   40   50 1   
    45   42   43 1   
    46   42   48 1   
    47   42   49 1   
    48   43   44 1   
    49   43   45 1   
    50   50   51 1   
    51   50   54 1   
    52   51   52 1   
    53   51   55 1   
    54   51   56 1   
    55   52   53 2   
    56   52   57 1   
    57   57   58 1   
    58   57   65 1   
    59   58   59 1   
    60   58   61 1   
    61   58   66 1   
    62   59   60 2   
    63   59   69 1   
    64   61   62 1   
    65   61   67 1   
    66   61   68 1   
    67   62   63 1   
    68   62   64 1   
    69   69   70 1   
    70   69   73 1   
    71   70   71 1   
    72   70   74 1   
    73   70   75 1   
    74   71   72 2   
    75   71   76 1   
    76   76   77 1   
    77   76   85 1   
    78   77   78 1   
    79   77   80 1   
    80   77   86 1   
    81   78   79 2   
    82   78   93 1   
    83   80   81 1   
    84   80   87 1   
    85   80   88 1   
    86   81   82 1   
    87   81   89 1   
    88   81   90 1   
    89   82   83 1   
    90   82   84 2   
    91   83   91 1   
    92   83   92 1   
    93   93   94 1   
    94   93  100 1   
    95   94   95 1   
    96   94   97 1   
    97   94  101 1   
    98   95   96 2   
    99   95  109 1   
   100   97   98 1   
   101   97   99 1   
   102   97  102 1   
   103   98  103 1   
   104   98  104 1   
   105   98  105 1   
   106   99  106 1   
   107   99  107 1   
   108   99  108 1   
   109  109  110 1   
   110  109  117 1   
   111  110  111 1   
   112  110  113 1   
   113  110  118 1   
   114  111  112 2   
   115  111  123 1   
   116  113  114 1   
   117  113  119 1   
   118  113  120 1   
   119  114  115 1   
   120  114  116 2   
   121  115  121 1   
   122  115  122 1   
   123  123  124 1   
   124  123  135 1   
   125  124  125 1   
   126  124  127 1   
   127  124  136 1   
   128  125  126 2   
   129  125  144 1   
   130  127  128 1   
   131  127  137 1   
   132  127  138 1   
   133  128  129 ar  
   134  128  130 ar  
   135  129  131 ar  
   136  129  139 1   
   137  130  132 ar  
   138  130  140 1   
   139  131  133 ar  
   140  131  141 1   
   141  132  133 ar  
   142  132  142 1   
   143  133  134 1   
   144  134  143 1   
   145  144  145 1   
   146  144  153 1   
   147  145  146 1   
   148  145  148 1   
   149  145  154 1   
   150  146  147 2   
   151  146  159 1   
   152  148  149 1   
   153  148  155 1   
   154  148  156 1   
   155  149  150 1   
   156  149  157 1   
   157  149  158 1   
   158  150  151 1   
   159  150  152 1   
   160  159  160 1   
   161  159  168 1   
   162  160  161 1   
   163  160  163 1   
   164  160  169 1   
   165  161  162 2   
   166  161  174 1   
   167  163  164 1   
   168  163  170 1   
   169  163  171 1   
   170  164  165 1   
   171  164  172 1   
   172  164  173 1   
   173  165  166 1   
   174  165  167 1   
   175  174  175 1   
   176  174  179 1   
   177  175  176 1   
   178  175  177 1   
   179  175  178 1   
   180  181  182 1   
   181  181  183 1   
@<TRIPOS>SUBSTRUCTURE
     1 MOL         1 TEMP              0 ****  ****    0 ROOT
