@<TRIPOS>MOLECULE
MOL
  189   185     1     0     0
SMALL
resp


@<TRIPOS>ATOM
      1 C1         -0.8170    0.5470    6.7070 c3        1 MOL     -0.290548
      2 C2         -0.9710    0.5090    5.1750 c         1 MOL      0.813909
      3 O1         -0.0350    0.8360    4.4950 o         1 MOL     -0.644084
      4 H1         -1.8030    0.6040    7.1690 hc        1 MOL      0.062284
      5 H2         -0.3090   -0.3560    7.0450 hc        1 MOL      0.062284
      6 H3         -0.2320    1.4210    6.9920 hc        1 MOL      0.062284
      7 N1         -2.1510    0.1970    4.7040 n         1 MOL     -0.641430
      8 C3         -2.5340    0.4950    3.3480 c3        1 MOL      0.171583
      9 C4         -2.8310    1.9810    3.2740 c         1 MOL      0.480696
     10 O2         -3.6650    2.5260    4.0330 o         1 MOL     -0.583295
     11 C5         -3.7180   -0.3890    2.9180 c3        1 MOL     -0.225581
     12 C6         -4.2250   -0.0590    1.4830 c         1 MOL      0.762896
     13 O3         -5.3970   -0.2400    1.1940 o         1 MOL     -0.648548
     14 O4         -3.4670    0.5580    0.6980 o         1 MOL     -0.648548
     15 H4         -2.8780   -0.1160    5.3310 hn        1 MOL      0.341647
     16 H5         -1.7280    0.3830    2.6260 h1        1 MOL      0.019436
     17 H6         -4.5500   -0.1520    3.5770 hc        1 MOL      0.033369
     18 H7         -3.3960   -1.4220    2.9930 hc        1 MOL      0.033369
     19 N2         -2.2350    2.6920    2.3580 n         1 MOL     -0.087745
     20 C7         -2.2940    4.1030    2.2330 c3        1 MOL     -0.188787
     21 C8         -3.4830    4.6240    1.2440 c         1 MOL      0.594779
     22 O5         -3.8770    5.7570    1.3370 o         1 MOL     -0.568816
     23 C9         -0.9320    4.7080    1.8680 c3        1 MOL     -0.014033
     24 C10        -0.6620    4.5380    0.3690 c3        1 MOL      0.258279
     25 C11         0.7300    5.1060   -0.0540 c3        1 MOL     -0.218835
     26 C12         1.0440    4.7160   -1.5070 c3        1 MOL      0.323022
     27 N3          0.1800    5.5540   -2.4130 n4        1 MOL     -0.543818
     28 H8         -1.6490    2.1470    1.7440 hn        1 MOL      0.069821
     29 H9         -2.5210    4.5580    3.1960 h1        1 MOL      0.115308
     30 H10        -0.1070    4.3620    2.4900 hc        1 MOL      0.040316
     31 H11        -0.9500    5.7670    2.0990 hc        1 MOL      0.040316
     32 H12        -1.4700    4.9660   -0.2190 hc        1 MOL     -0.094553
     33 H13        -0.7280    3.5010    0.0510 hc        1 MOL     -0.094553
     34 H14         1.4940    4.5240    0.4640 hc        1 MOL      0.041910
     35 H15         0.7370    6.1570    0.2500 hc        1 MOL      0.041910
     36 H16         0.8960    3.7050   -1.8830 hx        1 MOL     -0.011229
     37 H17         2.0490    5.0400   -1.7880 hx        1 MOL     -0.011229
     38 H18         0.3260    6.5470   -2.2810 hn        1 MOL      0.353255
     39 H19         0.3210    5.1930   -3.3470 hn        1 MOL      0.353255
     40 H20        -0.7600    5.3590   -2.1250 hn        1 MOL      0.353255
     41 N4         -4.0290    3.7470    0.4360 n         1 MOL     -0.566090
     42 C13        -4.9870    4.1640   -0.6180 c3        1 MOL      0.298430
     43 C14        -6.2540    3.2610   -0.8250 c         1 MOL      0.418188
     44 O6         -6.8940    3.2590   -1.8330 o         1 MOL     -0.483860
     45 C15        -4.2160    4.5520   -1.9390 c3        1 MOL     -0.545156
     46 C16        -3.1380    3.5330   -2.3960 c         1 MOL      1.087684
     47 O7         -2.2280    3.8680   -3.1490 o         1 MOL     -0.819523
     48 O8         -3.1200    2.3740   -1.9120 o         1 MOL     -0.819523
     49 H21        -3.6350    2.8160    0.4540 hn        1 MOL      0.271475
     50 H22        -5.4500    5.0830   -0.2730 h1        1 MOL      0.069757
     51 H23        -3.7760    5.5070   -1.6510 hc        1 MOL      0.108515
     52 H24        -4.8820    4.6840   -2.7890 hc        1 MOL      0.108515
     53 N5         -6.4450    2.4590    0.2010 n         1 MOL     -0.388790
     54 C17        -7.7270    1.7140    0.2930 c3        1 MOL     -0.189761
     55 C18        -7.9460    0.6370   -0.8110 c         1 MOL      0.530773
     56 O9         -9.0140    0.3600   -1.2500 o         1 MOL     -0.592225
     57 H25        -5.7990    2.4260    0.9770 hn        1 MOL      0.311727
     58 H26        -8.5500    2.4240    0.2890 h1        1 MOL      0.112375
     59 H27        -7.7190    1.1740    1.2450 h1        1 MOL      0.112375
     60 N6         -6.8840    0.0490   -1.3120 n         1 MOL     -0.094460
     61 C19        -6.9340   -1.0860   -2.2790 c3        1 MOL     -0.156505
     62 C20        -6.8200   -2.4470   -1.5340 c         1 MOL      0.354205
     63 O10        -6.7500   -3.5430   -2.1980 o         1 MOL     -0.532011
     64 C21        -5.8520   -0.9200   -3.3950 c3        1 MOL     -0.138387
     65 C22        -4.4790   -0.6180   -2.7570 c         1 MOL      0.685038
     66 O11        -4.1200   -1.0960   -1.6550 o         1 MOL     -0.704167
     67 O12        -3.6610    0.0150   -3.4740 o         1 MOL     -0.704167
     68 H28        -6.0000    0.1370   -0.8410 hn        1 MOL      0.140157
     69 H29        -7.8730   -1.0690   -2.8310 h1        1 MOL      0.155167
     70 H30        -6.1750   -0.0710   -4.0070 hc        1 MOL      0.067514
     71 H31        -5.8350   -1.7450   -4.0990 hc        1 MOL      0.067514
     72 N7         -6.7300   -2.4020   -0.2500 n         1 MOL     -0.143912
     73 C23        -6.5110   -3.5700    0.5860 c3        1 MOL     -0.161992
     74 C24        -5.1690   -4.2770    0.3290 c         1 MOL      0.486439
     75 O13        -5.0570   -5.4710    0.6210 o         1 MOL     -0.570255
     76 H32        -6.7410   -1.5290    0.2700 hn        1 MOL      0.212665
     77 H33        -7.3720   -4.2020    0.3680 h1        1 MOL      0.094260
     78 H34        -6.6130   -3.1750    1.6050 h1        1 MOL      0.094260
     79 N8         -4.2050   -3.6280   -0.2790 n         1 MOL     -0.028450
     80 C25        -2.8130   -4.2280   -0.5090 c3        1 MOL     -0.395511
     81 C26        -1.7360   -3.3300   -0.0120 c         1 MOL      0.813624
     82 O14        -1.8870   -2.0810    0.0240 o         1 MOL     -0.771572
     83 C27        -2.6880   -4.5950   -2.0760 c3        1 MOL      0.620017
     84 C28        -3.5420   -5.7170   -2.4620 c3        1 MOL     -0.489783
     85 O15        -2.9770   -3.4580   -2.8480 oh        1 MOL     -0.642512
     86 H35        -4.4360   -2.6550   -0.4070 hn        1 MOL      0.110530
     87 H36        -2.8430   -5.2330   -0.0630 h1        1 MOL      0.110123
     88 H37        -1.6370   -4.8620   -2.1990 h1        1 MOL     -0.068890
     89 H38        -3.5160   -2.8730   -2.3050 ho        1 MOL      0.384666
     90 H39        -3.5180   -6.5260   -1.7360 hc        1 MOL      0.123769
     91 H40        -4.5510   -5.3380   -2.6810 hc        1 MOL      0.123769
     92 H41        -3.0730   -6.1150   -3.3600 hc        1 MOL      0.123769
     93 N9         -0.5720   -3.8970    0.2540 n         1 MOL     -0.558301
     94 C29         0.5830   -3.2210    0.8210 c3        1 MOL     -0.094715
     95 C30         1.8570   -3.5120    0.0360 c         1 MOL      0.529982
     96 O16         2.2710   -4.6340   -0.1950 o         1 MOL     -0.537515
     97 C31         0.8270   -3.6940    2.3270 c3        1 MOL     -0.018956
     98 C32        -0.2700   -2.9190    3.1280 c3        1 MOL      0.406381
     99 C33         2.1550   -3.3620    2.9910 c3        1 MOL     -0.308725
    100 C34        -0.1790   -3.0970    4.6420 c3        1 MOL     -0.255329
    101 H42        -0.4670   -4.8970    0.2490 hn        1 MOL      0.315806
    102 H43         0.3770   -2.1630    0.7150 h1        1 MOL      0.199008
    103 H44         0.6190   -4.7340    2.5530 hc        1 MOL      0.041381
    104 H45        -1.1810   -3.4070    2.7960 hc        1 MOL     -0.075483
    105 H46        -0.2660   -1.8640    2.8470 hc        1 MOL     -0.075483
    106 H47         2.9450   -3.4990    2.2590 hc        1 MOL      0.073968
    107 H48         2.1360   -2.2960    3.2140 hc        1 MOL      0.073968
    108 H49         2.2520   -3.9010    3.9300 hc        1 MOL      0.073968
    109 H50        -0.1730   -4.1380    4.9880 hc        1 MOL      0.044608
    110 H51         0.6770   -2.4510    4.8320 hc        1 MOL      0.044608
    111 H52        -1.0300   -2.5950    5.0940 hc        1 MOL      0.044608
    112 N10         2.3440   -2.4150   -0.5520 n         1 MOL     -0.133623
    113 C35         3.6150   -2.3880   -1.3360 c3        1 MOL     -0.187843
    114 C36         4.8960   -2.5160   -0.5730 c         1 MOL      0.341251
    115 O17         4.8650   -2.3960    0.6160 o         1 MOL     -0.273802
    116 C37         3.6630   -1.1340   -2.2550 c3        1 MOL      0.466865
    117 C38         2.8680   -1.2390   -3.4630 c3        1 MOL     -0.588740
    118 O18         3.2240    0.0370   -1.5400 oh        1 MOL     -0.734021
    119 H53         1.8450   -1.5580   -0.3700 hn        1 MOL      0.064933
    120 H54         3.5150   -3.2640   -1.9800 h1        1 MOL      0.094760
    121 H55         4.6790   -1.0050   -2.6290 h1        1 MOL      0.000501
    122 H56         2.3100   -0.0870   -1.2680 ho        1 MOL      0.451432
    123 H57         1.8280   -1.3500   -3.1390 hc        1 MOL      0.144065
    124 H58         3.1020   -0.3810   -4.0770 hc        1 MOL      0.144065
    125 H59         3.1260   -2.1410   -4.0070 hc        1 MOL      0.144065
    126 N11         5.9760   -2.6950   -1.2990 n         1 MOL     -0.336428
    127 C39         7.3670   -2.5920   -0.7040 c3        1 MOL     -0.023856
    128 C40         7.5070   -1.1680   -0.1630 c         1 MOL      0.291792
    129 O19         8.0460   -0.9480    0.8920 o         1 MOL     -0.490263
    130 C41         8.5350   -2.8490   -1.7270 c3        1 MOL      0.271627
    131 C42         8.6690   -4.2630   -2.2190 c3        1 MOL     -0.298650
    132 O20         8.4110   -2.0680   -2.8940 oh        1 MOL     -0.649898
    133 H60         5.9030   -2.8060   -2.2940 hn        1 MOL      0.273399
    134 H61         7.3870   -3.3000    0.1250 h1        1 MOL      0.138815
    135 H62         9.4870   -2.7430   -1.2000 h1        1 MOL      0.044554
    136 H63         9.1830   -2.1660   -3.4570 ho        1 MOL      0.428818
    137 H64         8.8250   -4.9850   -1.4140 hc        1 MOL      0.085115
    138 H65         7.7120   -4.4880   -2.6780 hc        1 MOL      0.085115
    139 H66         9.4900   -4.3020   -2.9300 hc        1 MOL      0.085115
    140 N12         7.0250   -0.1370   -0.8820 n         1 MOL     -0.171511
    141 C43         6.9780    1.2470   -0.4030 c3        1 MOL      0.035233
    142 C44         5.9970    1.5510    0.6760 c         1 MOL      0.394866
    143 O21         6.2180    2.5840    1.2590 o         1 MOL     -0.546255
    144 C45         6.7220    2.1540   -1.6050 c3        1 MOL     -0.469014
    145 C46         8.0640    2.4570   -2.3040 c3        1 MOL      0.193848
    146 C47         8.8300    3.5440   -1.6020 c3        1 MOL     -0.046835
    147 C48        10.1800    3.7860   -2.3280 c3        1 MOL      0.056039
    148 N13        10.8980    5.0300   -1.8090 n4        1 MOL     -0.423734
    149 H67         6.7370   -0.4180   -1.8020 hn        1 MOL      0.206858
    150 H68         7.9220    1.5600    0.0410 h1        1 MOL      0.100855
    151 H69         6.1830    3.0460   -1.2990 hc        1 MOL      0.165296
    152 H70         6.1400    1.5490   -2.2930 hc        1 MOL      0.165296
    153 H71         7.8630    2.9450   -3.2630 hc        1 MOL     -0.027320
    154 H72         8.6900    1.5770   -2.4390 hc        1 MOL     -0.027320
    155 H73         9.0160    3.3230   -0.5540 hc        1 MOL      0.046322
    156 H74         8.1290    4.3760   -1.5370 hc        1 MOL      0.046322
    157 H75        10.1380    3.7490   -3.4170 hx        1 MOL      0.085415
    158 H76        10.7810    2.9170   -2.0790 hx        1 MOL      0.085415
    159 H77        11.3290    4.7990   -0.9280 hn        1 MOL      0.345637
    160 H78        11.6680    5.3390   -2.3850 hn        1 MOL      0.345637
    161 H79        10.2170    5.7600   -1.6330 hn        1 MOL      0.345637
    162 N14         5.0280    0.6960    1.0210 n         1 MOL     -0.032965
    163 C49         4.2400    0.8800    2.2480 c3        1 MOL     -0.094240
    164 C50         4.8010   -0.0880    3.3720 c         1 MOL      0.464405
    165 O22         4.7100    0.3240    4.4850 o         1 MOL     -0.509791
    166 C51         2.7770    0.4220    1.8870 c3        1 MOL     -0.038548
    167 C52         1.9970    1.4180    0.9740 c3        1 MOL      0.033524
    168 C53         0.7600    0.8680    0.2910 c         1 MOL      0.631939
    169 O23         0.9000   -0.0310   -0.5720 o         1 MOL     -0.645858
    170 O24        -0.4150    1.2990    0.6120 o         1 MOL     -0.645858
    171 H80         4.7800   -0.0880    0.4310 hn        1 MOL      0.087363
    172 H81         4.2710    1.9190    2.5960 h1        1 MOL      0.113141
    173 H82         2.0590    0.2140    2.6730 hc        1 MOL      0.077719
    174 H83         2.9000   -0.5460    1.4030 hc        1 MOL      0.077719
    175 H84         2.6910    1.8460    0.2480 hc        1 MOL     -0.008793
    176 H85         1.6430    2.2340    1.6150 hc        1 MOL     -0.008793
    177 N15         5.4600   -1.2680    3.1170 n         1 MOL     -0.238769
    178 C54         5.7330   -2.3430    4.0640 c3        1 MOL     -0.207127
    179 H86         6.7950   -2.3490    4.3090 h1        1 MOL      0.095657
    180 H87         5.1530   -2.1830    4.9740 h1        1 MOL      0.095657
    181 H88         5.4580   -3.2990    3.6200 h1        1 MOL      0.095657
    182 H89         5.6480   -1.3790    2.1250 hn        1 MOL      0.155184
    183 Ca1        -1.9640    0.2330   -1.2950 Ca        1 MOL      1.791950
    184 O25        -0.9670   -1.5060   -3.2980 oh        1 MOL     -0.827730
    185 H90        -0.7480   -1.1800   -4.1710 ho        1 MOL      0.398326
    186 H91        -1.3560   -2.3700   -3.4520 ho        1 MOL      0.398326
    187 O26        -0.4870    1.6890   -2.9880 oh        1 MOL     -0.827730
    188 H92        -0.8370    2.4890   -3.3770 ho        1 MOL      0.398326
    189 H93         0.3910    1.5980   -3.3570 ho        1 MOL      0.398326
@<TRIPOS>BOND
     1    1    2 1   
     2    1    4 1   
     3    1    5 1   
     4    1    6 1   
     5    2    3 2   
     6    2    7 1   
     7    7    8 1   
     8    7   15 1   
     9    8    9 1   
    10    8   11 1   
    11    8   16 1   
    12    9   10 2   
    13    9   19 1   
    14   11   12 1   
    15   11   17 1   
    16   11   18 1   
    17   12   13 1   
    18   12   14 1   
    19   19   20 1   
    20   19   28 1   
    21   20   21 1   
    22   20   23 1   
    23   20   29 1   
    24   21   22 2   
    25   21   41 1   
    26   23   24 1   
    27   23   30 1   
    28   23   31 1   
    29   24   25 1   
    30   24   32 1   
    31   24   33 1   
    32   25   26 1   
    33   25   34 1   
    34   25   35 1   
    35   26   27 1   
    36   26   36 1   
    37   26   37 1   
    38   27   38 1   
    39   27   39 1   
    40   27   40 1   
    41   41   42 1   
    42   41   49 1   
    43   42   43 1   
    44   42   45 1   
    45   42   50 1   
    46   43   44 2   
    47   43   53 1   
    48   45   46 1   
    49   45   51 1   
    50   45   52 1   
    51   46   47 1   
    52   46   48 1   
    53   53   54 1   
    54   53   57 1   
    55   54   55 1   
    56   54   58 1   
    57   54   59 1   
    58   55   56 2   
    59   55   60 1   
    60   60   61 1   
    61   60   68 1   
    62   61   62 1   
    63   61   64 1   
    64   61   69 1   
    65   62   63 2   
    66   62   72 1   
    67   64   65 1   
    68   64   70 1   
    69   64   71 1   
    70   65   66 1   
    71   65   67 1   
    72   72   73 1   
    73   72   76 1   
    74   73   74 1   
    75   73   77 1   
    76   73   78 1   
    77   74   75 2   
    78   74   79 1   
    79   79   80 1   
    80   79   86 1   
    81   80   81 1   
    82   80   83 1   
    83   80   87 1   
    84   81   82 2   
    85   81   93 1   
    86   83   84 1   
    87   83   85 1   
    88   83   88 1   
    89   84   90 1   
    90   84   91 1   
    91   84   92 1   
    92   85   89 1   
    93   93   94 1   
    94   93  101 1   
    95   94   95 1   
    96   94   97 1   
    97   94  102 1   
    98   95   96 2   
    99   95  112 1   
   100   97   98 1   
   101   97   99 1   
   102   97  103 1   
   103   98  100 1   
   104   98  104 1   
   105   98  105 1   
   106   99  106 1   
   107   99  107 1   
   108   99  108 1   
   109  100  109 1   
   110  100  110 1   
   111  100  111 1   
   112  112  113 1   
   113  112  119 1   
   114  113  114 1   
   115  113  116 1   
   116  113  120 1   
   117  114  115 2   
   118  114  126 1   
   119  116  117 1   
   120  116  118 1   
   121  116  121 1   
   122  117  123 1   
   123  117  124 1   
   124  117  125 1   
   125  118  122 1   
   126  126  127 1   
   127  126  133 1   
   128  127  128 1   
   129  127  130 1   
   130  127  134 1   
   131  128  129 2   
   132  128  140 1   
   133  130  131 1   
   134  130  132 1   
   135  130  135 1   
   136  131  137 1   
   137  131  138 1   
   138  131  139 1   
   139  132  136 1   
   140  140  141 1   
   141  140  149 1   
   142  141  142 1   
   143  141  144 1   
   144  141  150 1   
   145  142  143 2   
   146  142  162 1   
   147  144  145 1   
   148  144  151 1   
   149  144  152 1   
   150  145  146 1   
   151  145  153 1   
   152  145  154 1   
   153  146  147 1   
   154  146  155 1   
   155  146  156 1   
   156  147  148 1   
   157  147  157 1   
   158  147  158 1   
   159  148  159 1   
   160  148  160 1   
   161  148  161 1   
   162  162  163 1   
   163  162  171 1   
   164  163  164 1   
   165  163  166 1   
   166  163  172 1   
   167  164  165 2   
   168  164  177 1   
   169  166  167 1   
   170  166  173 1   
   171  166  174 1   
   172  167  168 1   
   173  167  175 1   
   174  167  176 1   
   175  168  169 1   
   176  168  170 1   
   177  177  178 1   
   178  177  182 1   
   179  178  179 1   
   180  178  180 1   
   181  178  181 1   
   182  184  185 1   
   183  184  186 1   
   184  187  188 1   
   185  187  189 1   
@<TRIPOS>SUBSTRUCTURE
     1 MOL         1 TEMP              0 ****  ****    0 ROOT
