@<TRIPOS>MOLECULE
MOL
  189   185     1     0     0
SMALL
resp


@<TRIPOS>ATOM
      1 C1          0.1380    2.3960   -5.7480 c3        1 MOL     -0.353954
      2 C2          0.4420    2.2700   -4.2650 c         1 MOL      0.660558
      3 O1         -0.5400    2.3190   -3.4670 o         1 MOL     -0.602409
      4 H1         -0.8250    2.8900   -5.8800 hc        1 MOL      0.092738
      5 H2          0.9180    2.9840   -6.2310 hc        1 MOL      0.092738
      6 H3          0.1010    1.4030   -6.1970 hc        1 MOL      0.092738
      7 N1          1.6760    2.1140   -3.8820 n         1 MOL     -0.474257
      8 C3          2.2620    1.7730   -2.5660 c3        1 MOL      0.096868
      9 C4          2.6160    2.9560   -1.6690 c         1 MOL      0.306286
     10 O2          3.6730    3.6090   -1.8140 o         1 MOL     -0.508617
     11 C5          3.4520    0.8380   -2.7310 c3        1 MOL      0.005226
     12 C6          4.0530    0.3510   -1.4040 c         1 MOL      0.683934
     13 O3          3.3480    0.4100   -0.3910 o         1 MOL     -0.665637
     14 O4          5.2610    0.0360   -1.3570 o         1 MOL     -0.665637
     15 H4          2.3100    2.0330   -4.6640 hn        1 MOL      0.288880
     16 H5          1.4510    1.2020   -2.1260 h1        1 MOL      0.026455
     17 H6          4.2480    1.2710   -3.3460 hc        1 MOL     -0.006953
     18 H7          3.1220   -0.0330   -3.3020 hc        1 MOL     -0.006953
     19 N2          1.6510    3.4120   -0.8420 n         1 MOL      0.025659
     20 C7          1.4680    4.7970   -0.3960 c3        1 MOL     -0.065660
     21 C8          2.2230    4.9880    0.9760 c         1 MOL      0.389987
     22 O5          2.5880    6.1170    1.2740 o         1 MOL     -0.567986
     23 C9          0.0220    5.1580   -0.2620 c3        1 MOL     -0.109903
     24 C10        -0.9090    4.8520   -1.4330 c3        1 MOL      0.046846
     25 C11        -0.4510    5.2400   -2.8370 c3        1 MOL     -0.130140
     26 C12        -0.3640    6.7830   -3.0060 c3        1 MOL     -0.010863
     27 N3          0.5660    7.2170   -4.0120 n4        1 MOL     -0.325038
     28 H8          0.9140    2.7650   -0.6070 hn        1 MOL      0.162279
     29 H9          1.9670    5.4680   -1.1040 h1        1 MOL      0.071049
     30 H10        -0.0700    6.2170   -0.0160 hc        1 MOL      0.048768
     31 H11        -0.2840    4.6290    0.6330 hc        1 MOL      0.048768
     32 H12        -1.8460    5.3760   -1.2530 hc        1 MOL      0.029607
     33 H13        -1.1080    3.7770   -1.4870 hc        1 MOL      0.029607
     34 H14        -1.2030    4.8580   -3.5310 hc        1 MOL      0.063572
     35 H15         0.4920    4.7820   -3.1400 hc        1 MOL      0.063572
     36 H16        -0.1060    7.1520   -2.0240 hx        1 MOL      0.093047
     37 H17        -1.3510    7.1490   -3.2780 hx        1 MOL      0.093047
     38 H18         0.3510    6.8280   -4.9100 hn        1 MOL      0.318165
     39 H19         0.5200    8.2250   -4.1270 hn        1 MOL      0.318165
     40 H20         1.4860    6.8730   -3.7890 hn        1 MOL      0.318165
     41 N4          2.6690    3.9130    1.6370 n         1 MOL      0.000775
     42 C13         3.7210    4.0060    2.6760 c3        1 MOL      0.017771
     43 C14         5.1400    3.3870    2.2750 c         1 MOL      0.384110
     44 O6          6.1180    3.6610    2.9290 o         1 MOL     -0.511369
     45 C15         3.2910    3.3830    3.9660 c3        1 MOL     -0.292626
     46 C16         2.5490    2.0720    3.7890 c         1 MOL      0.806237
     47 O7          1.6280    1.8480    4.6120 o         1 MOL     -0.709611
     48 O8          2.9360    1.2670    2.9110 o         1 MOL     -0.709611
     49 H21         2.3970    3.0100    1.2550 hn        1 MOL     -0.058080
     50 H22         3.8610    5.0760    2.8090 h1        1 MOL      0.096389
     51 H23         2.6410    4.0360    4.5500 hc        1 MOL      0.075124
     52 H24         4.2040    3.1610    4.5230 hc        1 MOL      0.075124
     53 N5          5.2010    2.6260    1.1510 n         1 MOL     -0.016257
     54 C17         6.5240    2.2670    0.5760 c3        1 MOL     -0.162343
     55 C18         7.1100    0.8380    0.8880 c         1 MOL      0.448823
     56 O9          8.3370    0.5900    0.7730 o         1 MOL     -0.578700
     57 H25         4.4080    2.5140    0.5260 hn        1 MOL     -0.002300
     58 H26         7.2350    3.0720    0.7350 h1        1 MOL      0.103359
     59 H27         6.3760    2.2530   -0.5060 h1        1 MOL      0.103359
     60 N6          6.2400    0.0270    1.3730 n         1 MOL     -0.061370
     61 C19         6.7260   -1.1500    2.0740 c3        1 MOL     -0.014243
     62 C20         7.0580   -2.3020    1.0740 c         1 MOL      0.370384
     63 O10         7.7450   -3.2000    1.4850 o         1 MOL     -0.528242
     64 C21         5.7050   -1.5680    3.1320 c3        1 MOL     -0.389205
     65 C22         4.3380   -1.7930    2.6010 c         1 MOL      0.874611
     66 O11         4.1390   -2.3420    1.4900 o         1 MOL     -0.720869
     67 O12         3.3540   -1.5830    3.3230 o         1 MOL     -0.720869
     68 H28         5.2580    0.2770    1.3930 hn        1 MOL      0.075502
     69 H29         7.5900   -0.8230    2.6440 h1        1 MOL      0.119111
     70 H30         5.7940   -0.8210    3.9070 hc        1 MOL      0.120170
     71 H31         6.0720   -2.5000    3.5690 hc        1 MOL      0.120170
     72 N7          6.6060   -2.2730   -0.1930 n         1 MOL     -0.063438
     73 C23         6.7360   -3.2900   -1.1520 c3        1 MOL     -0.266253
     74 C24         5.5640   -4.1750   -1.4160 c         1 MOL      0.637544
     75 O13         5.7000   -5.0610   -2.2350 o         1 MOL     -0.585830
     76 H32         6.0050   -1.4730   -0.3570 hn        1 MOL      0.172897
     77 H33         7.5160   -3.9560   -0.7930 h1        1 MOL      0.106022
     78 H34         6.9970   -2.7590   -2.0730 h1        1 MOL      0.106022
     79 N8          4.4050   -3.7960   -0.8160 n         1 MOL     -0.306880
     80 C25         3.0850   -4.4370   -0.9200 c3        1 MOL     -0.194155
     81 C26         1.8960   -3.4650   -1.0250 c         1 MOL      0.673389
     82 O14         1.8820   -2.4060   -0.4190 o         1 MOL     -0.710994
     83 C27         2.7840   -5.5070    0.2140 c3        1 MOL      0.455141
     84 C28         3.5930   -6.7260    0.1210 c3        1 MOL     -0.509974
     85 O15         3.0900   -4.8950    1.4620 oh        1 MOL     -0.622805
     86 H35         4.5840   -3.0410   -0.1760 hn        1 MOL      0.236478
     87 H36         3.1490   -5.0390   -1.8250 h1        1 MOL      0.092723
     88 H37         1.7780   -5.9130    0.2460 h1        1 MOL     -0.006244
     89 H38         3.3920   -4.0040    1.2620 ho        1 MOL      0.410827
     90 H39         3.2800   -7.3180   -0.7340 hc        1 MOL      0.134727
     91 H40         4.6610   -6.5230    0.1610 hc        1 MOL      0.134727
     92 H41         3.3270   -7.2210    1.0630 hc        1 MOL      0.134727
     93 N9          0.7890   -3.8740   -1.6850 n         1 MOL     -0.706985
     94 C29        -0.2890   -2.9470   -1.9700 c3        1 MOL      0.322922
     95 C30        -1.5180   -3.4360   -1.2190 c         1 MOL      0.442809
     96 O16        -1.8330   -4.6120   -1.3060 o         1 MOL     -0.557125
     97 C31        -0.5840   -2.7270   -3.4850 c3        1 MOL      0.097991
     98 C32         0.6480   -2.2180   -4.2400 c3        1 MOL      0.505916
     99 C33        -1.6430   -1.6090   -3.6840 c3        1 MOL     -0.794171
    100 C34         0.5760   -2.3450   -5.7560 c3        1 MOL     -0.344908
    101 H42         0.7640   -4.8580   -1.9120 hn        1 MOL      0.325085
    102 H43        -0.0440   -1.9690   -1.5510 h1        1 MOL      0.026473
    103 H44        -0.9020   -3.6810   -3.9010 hc        1 MOL     -0.006876
    104 H45         1.4930   -2.8500   -3.9660 hc        1 MOL     -0.109705
    105 H46         0.9050   -1.1860   -3.9940 hc        1 MOL     -0.109705
    106 H47        -2.5270   -1.6830   -3.0500 hc        1 MOL      0.170664
    107 H48        -1.3150   -0.6120   -3.4060 hc        1 MOL      0.170664
    108 H49        -1.8920   -1.5200   -4.7500 hc        1 MOL      0.170664
    109 H50        -0.0650   -1.5820   -6.1820 hc        1 MOL      0.066563
    110 H51         1.5140   -2.0640   -6.2420 hc        1 MOL      0.066563
    111 H52         0.4040   -3.3890   -6.0360 hc        1 MOL      0.066563
    112 N10        -2.1860   -2.5050   -0.5080 n         1 MOL     -0.062341
    113 C35        -3.4200   -2.9260    0.2130 c3        1 MOL     -0.002112
    114 C36        -4.7180   -2.6280   -0.5310 c         1 MOL      0.257999
    115 O17        -4.7650   -1.7570   -1.3570 o         1 MOL     -0.217901
    116 C37        -3.5530   -2.2780    1.6350 c3        1 MOL     -0.016490
    117 C38        -2.3750   -2.6230    2.5570 c3        1 MOL     -0.281418
    118 O18        -3.5940   -0.9250    1.5390 oh        1 MOL     -0.281210
    119 H53        -1.8700   -1.5790   -0.2800 hn        1 MOL      0.146744
    120 H54        -3.2360   -3.9820    0.4070 h1        1 MOL      0.075141
    121 H55        -4.4310   -2.6200    2.1780 h1        1 MOL      0.051294
    122 H56        -3.3910   -0.5140    2.3850 ho        1 MOL      0.358195
    123 H57        -2.2490   -3.6900    2.7030 hc        1 MOL      0.078746
    124 H58        -1.4380   -2.2400    2.1630 hc        1 MOL      0.078746
    125 H59        -2.4940   -2.0960    3.5070 hc        1 MOL      0.078746
    126 N11        -5.8220   -3.1860   -0.0680 n         1 MOL     -0.245463
    127 C39        -7.1460   -2.8660   -0.5770 c3        1 MOL     -0.248248
    128 C40        -7.4120   -1.3730   -0.4780 c         1 MOL      0.292340
    129 O19        -7.9040   -0.6870   -1.3560 o         1 MOL     -0.462375
    130 C41        -8.3080   -3.5090    0.1820 c3        1 MOL      0.404626
    131 C42        -8.3550   -5.0380    0.0570 c3        1 MOL     -0.377650
    132 O20        -8.2480   -3.1620    1.5500 oh        1 MOL     -0.589714
    133 H60        -5.7050   -3.9110    0.6240 hn        1 MOL      0.280112
    134 H61        -7.1430   -3.1660   -1.6220 h1        1 MOL      0.170512
    135 H62        -9.2670   -3.1830   -0.2110 h1        1 MOL      0.031111
    136 H63        -9.1470   -2.8960    1.7650 ho        1 MOL      0.368976
    137 H64        -8.5810   -5.3270   -0.9680 hc        1 MOL      0.102624
    138 H65        -7.3860   -5.4040    0.4090 hc        1 MOL      0.102624
    139 H66        -9.0750   -5.5370    0.7130 hc        1 MOL      0.102624
    140 N12        -6.9590   -0.7270    0.6030 n         1 MOL     -0.058054
    141 C43        -7.0720    0.7270    0.9880 c3        1 MOL     -0.189792
    142 C44        -6.1460    1.5260    0.0920 c         1 MOL      0.287962
    143 O21        -6.5230    2.5180   -0.5150 o         1 MOL     -0.515360
    144 C45        -6.8430    0.9530    2.5070 c3        1 MOL     -0.129579
    145 C46        -7.0520    2.3720    2.9460 c3        1 MOL     -0.051568
    146 C47        -6.9070    2.4730    4.4920 c3        1 MOL     -0.137171
    147 C48        -7.9480    1.6600    5.3770 c3        1 MOL      0.172418
    148 N13        -7.9070    2.0550    6.8120 n4        1 MOL     -0.446975
    149 H67        -6.5980   -1.3290    1.3300 hn        1 MOL      0.122662
    150 H68        -8.0610    1.1240    0.7620 h1        1 MOL      0.176430
    151 H69        -5.8540    0.6860    2.8610 hc        1 MOL      0.060812
    152 H70        -7.7250    0.4800    2.9640 hc        1 MOL      0.060812
    153 H71        -8.0310    2.7430    2.6540 hc        1 MOL      0.075352
    154 H72        -6.1690    2.8790    2.5560 hc        1 MOL      0.075352
    155 H73        -7.0960    3.5220    4.7100 hc        1 MOL      0.063924
    156 H74        -5.9040    2.1260    4.7200 hc        1 MOL      0.063924
    157 H75        -7.7970    0.5860    5.2610 hx        1 MOL      0.054865
    158 H76        -8.9700    1.8190    5.0290 hx        1 MOL      0.054865
    159 H77        -8.4910    1.5030    7.4290 hn        1 MOL      0.330638
    160 H78        -6.9470    2.0230    7.1290 hn        1 MOL      0.330638
    161 H79        -8.2540    2.9980    6.8440 hn        1 MOL      0.330638
    162 N14        -4.8940    1.1560   -0.1890 n         1 MOL      0.247632
    163 C49        -3.9250    1.8290   -1.0600 c3        1 MOL     -0.209693
    164 C50        -4.4260    1.7100   -2.5310 c         1 MOL      0.544588
    165 O22        -4.3790    2.6550   -3.2720 o         1 MOL     -0.539823
    166 C51        -2.5860    1.1240   -0.9440 c3        1 MOL     -0.116711
    167 C52        -1.8860    1.5090    0.4240 c3        1 MOL     -0.048927
    168 C53        -0.4840    0.9030    0.5670 c         1 MOL      0.517561
    169 O23        -0.3410   -0.3180    0.4340 o         1 MOL     -0.645778
    170 O24         0.5040    1.6390    0.9190 o         1 MOL     -0.645778
    171 H80        -4.5910    0.2830    0.2330 hn        1 MOL     -0.159386
    172 H81        -3.7620    2.8580   -0.7570 h1        1 MOL      0.086949
    173 H82        -1.8540    1.2950   -1.7280 hc        1 MOL      0.104797
    174 H83        -2.7430    0.0490   -1.0610 hc        1 MOL      0.104797
    175 H84        -2.4760    1.3590    1.3240 hc        1 MOL      0.017475
    176 H85        -1.7850    2.5920    0.4880 hc        1 MOL      0.017475
    177 N15        -4.9660    0.5110   -2.9550 n         1 MOL     -0.141012
    178 C54        -5.7900    0.5020   -4.2010 c3        1 MOL     -0.554364
    179 H86        -6.7120    1.0590   -4.0310 h1        1 MOL      0.180421
    180 H87        -5.2290    0.9690   -5.0110 h1        1 MOL      0.180421
    181 H88        -6.0310   -0.5260   -4.4720 h1        1 MOL      0.180421
    182 H89        -5.0240   -0.2980   -2.3620 hn        1 MOL      0.167616
    183 Ca1         1.9830   -0.6490    1.3950 Ca        1 MOL      1.744713
    184 O25         0.3920   -0.1220    3.4090 oh        1 MOL     -0.766618
    185 H90        -0.4510   -0.2540    3.8440 ho        1 MOL      0.362680
    186 H91         0.8610    0.4970    3.9720 ho        1 MOL      0.362680
    187 O26         1.1950   -3.1020    2.7020 oh        1 MOL     -0.766618
    188 H92         0.6240   -3.3650    3.4210 ho        1 MOL      0.362680
    189 H93         1.6740   -3.9010    2.4800 ho        1 MOL      0.362680
@<TRIPOS>BOND
     1    1    2 1   
     2    1    4 1   
     3    1    5 1   
     4    1    6 1   
     5    2    3 2   
     6    2    7 1   
     7    7    8 1   
     8    7   15 1   
     9    8    9 1   
    10    8   11 1   
    11    8   16 1   
    12    9   10 2   
    13    9   19 1   
    14   11   12 1   
    15   11   17 1   
    16   11   18 1   
    17   12   13 1   
    18   12   14 1   
    19   19   20 1   
    20   19   28 1   
    21   20   21 1   
    22   20   23 1   
    23   20   29 1   
    24   21   22 2   
    25   21   41 1   
    26   23   24 1   
    27   23   30 1   
    28   23   31 1   
    29   24   25 1   
    30   24   32 1   
    31   24   33 1   
    32   25   26 1   
    33   25   34 1   
    34   25   35 1   
    35   26   27 1   
    36   26   36 1   
    37   26   37 1   
    38   27   38 1   
    39   27   39 1   
    40   27   40 1   
    41   41   42 1   
    42   41   49 1   
    43   42   43 1   
    44   42   45 1   
    45   42   50 1   
    46   43   44 2   
    47   43   53 1   
    48   45   46 1   
    49   45   51 1   
    50   45   52 1   
    51   46   47 1   
    52   46   48 1   
    53   53   54 1   
    54   53   57 1   
    55   54   55 1   
    56   54   58 1   
    57   54   59 1   
    58   55   56 2   
    59   55   60 1   
    60   60   61 1   
    61   60   68 1   
    62   61   62 1   
    63   61   64 1   
    64   61   69 1   
    65   62   63 2   
    66   62   72 1   
    67   64   65 1   
    68   64   70 1   
    69   64   71 1   
    70   65   66 1   
    71   65   67 1   
    72   72   73 1   
    73   72   76 1   
    74   73   74 1   
    75   73   77 1   
    76   73   78 1   
    77   74   75 2   
    78   74   79 1   
    79   79   80 1   
    80   79   86 1   
    81   80   81 1   
    82   80   83 1   
    83   80   87 1   
    84   81   82 2   
    85   81   93 1   
    86   83   84 1   
    87   83   85 1   
    88   83   88 1   
    89   84   90 1   
    90   84   91 1   
    91   84   92 1   
    92   85   89 1   
    93   93   94 1   
    94   93  101 1   
    95   94   95 1   
    96   94   97 1   
    97   94  102 1   
    98   95   96 2   
    99   95  112 1   
   100   97   98 1   
   101   97   99 1   
   102   97  103 1   
   103   98  100 1   
   104   98  104 1   
   105   98  105 1   
   106   99  106 1   
   107   99  107 1   
   108   99  108 1   
   109  100  109 1   
   110  100  110 1   
   111  100  111 1   
   112  112  113 1   
   113  112  119 1   
   114  113  114 1   
   115  113  116 1   
   116  113  120 1   
   117  114  115 2   
   118  114  126 1   
   119  116  117 1   
   120  116  118 1   
   121  116  121 1   
   122  117  123 1   
   123  117  124 1   
   124  117  125 1   
   125  118  122 1   
   126  126  127 1   
   127  126  133 1   
   128  127  128 1   
   129  127  130 1   
   130  127  134 1   
   131  128  129 2   
   132  128  140 1   
   133  130  131 1   
   134  130  132 1   
   135  130  135 1   
   136  131  137 1   
   137  131  138 1   
   138  131  139 1   
   139  132  136 1   
   140  140  141 1   
   141  140  149 1   
   142  141  142 1   
   143  141  144 1   
   144  141  150 1   
   145  142  143 2   
   146  142  162 1   
   147  144  145 1   
   148  144  151 1   
   149  144  152 1   
   150  145  146 1   
   151  145  153 1   
   152  145  154 1   
   153  146  147 1   
   154  146  155 1   
   155  146  156 1   
   156  147  148 1   
   157  147  157 1   
   158  147  158 1   
   159  148  159 1   
   160  148  160 1   
   161  148  161 1   
   162  162  163 1   
   163  162  171 1   
   164  163  164 1   
   165  163  166 1   
   166  163  172 1   
   167  164  165 2   
   168  164  177 1   
   169  166  167 1   
   170  166  173 1   
   171  166  174 1   
   172  167  168 1   
   173  167  175 1   
   174  167  176 1   
   175  168  169 1   
   176  168  170 1   
   177  177  178 1   
   178  177  182 1   
   179  178  179 1   
   180  178  180 1   
   181  178  181 1   
   182  184  185 1   
   183  184  186 1   
   184  187  188 1   
   185  187  189 1   
@<TRIPOS>SUBSTRUCTURE
     1 MOL         1 TEMP              0 ****  ****    0 ROOT
