@<TRIPOS>MOLECULE
MOL
  176   174     1     0     0
SMALL
resp


@<TRIPOS>ATOM
      1 C1          1.7840   -4.0420    6.7340 c3        1 MOL     -0.280535
      2 C2          1.2870   -3.8360    5.3550 c         1 MOL      0.709488
      3 O1          0.2270   -4.3440    4.9440 o         1 MOL     -0.577027
      4 H1          1.3780   -3.2670    7.3850 hc        1 MOL      0.071446
      5 H2          1.4660   -5.0210    7.0930 hc        1 MOL      0.071446
      6 H3          2.8720   -3.9880    6.7400 hc        1 MOL      0.071446
      7 N1          1.9930   -3.0180    4.5820 n         1 MOL     -0.540106
      8 C3          1.7550   -2.6450    3.1620 c3        1 MOL     -0.059766
      9 C4          1.5320   -3.8930    2.2530 c         1 MOL      0.634607
     10 O2          2.2320   -4.8920    2.3710 o         1 MOL     -0.532206
     11 C5          2.9150   -1.7680    2.7410 c3        1 MOL     -0.231427
     12 C6          2.8990   -1.2730    1.3260 c         1 MOL      0.811335
     13 O3          2.7040   -2.0290    0.4170 o         1 MOL     -0.783508
     14 O4          3.1920   -0.1490    0.9100 o         1 MOL     -0.783508
     15 H4          2.8140   -2.5750    4.9680 hn        1 MOL      0.300745
     16 H5          0.8690   -2.0040    3.2160 h1        1 MOL      0.113843
     17 H6          3.8690   -2.3000    2.8670 hc        1 MOL      0.077815
     18 H7          2.8250   -0.9360    3.4280 hc        1 MOL      0.077815
     19 N2          0.6130   -3.8710    1.2690 n         1 MOL     -0.408106
     20 C7          0.2440   -5.0710    0.4820 c3        1 MOL     -0.056270
     21 C8          1.3580   -5.5650   -0.4590 c         1 MOL      0.500980
     22 O5          1.4370   -6.7290   -0.8700 o         1 MOL     -0.590552
     23 C9         -0.9820   -4.7350   -0.3620 c3        1 MOL     -0.020654
     24 C10        -1.6380   -6.0690   -0.9970 c3        1 MOL      0.283324
     25 C11        -3.0380   -5.7740   -1.4710 c3        1 MOL     -0.164956
     26 C12        -3.6510   -6.9040   -2.2220 c3        1 MOL     -0.034388
     27 N3         -2.8990   -7.2600   -3.5410 n4        1 MOL     -0.455976
     28 H8          0.2240   -2.9800    1.0070 hn        1 MOL      0.170146
     29 H9          0.0390   -5.8930    1.1750 h1        1 MOL      0.124273
     30 H10        -0.6970   -4.0400   -1.1490 hc        1 MOL     -0.002020
     31 H11        -1.6680   -4.2180    0.3140 hc        1 MOL     -0.002020
     32 H12        -1.5570   -6.9180   -0.3200 hc        1 MOL     -0.058392
     33 H13        -1.0770   -6.3610   -1.8840 hc        1 MOL     -0.058392
     34 H14        -3.1650   -4.8460   -2.0440 hc        1 MOL      0.076987
     35 H15        -3.6120   -5.5990   -0.5560 hc        1 MOL      0.076987
     36 H16        -4.6760   -6.6080   -2.4570 hx        1 MOL      0.121239
     37 H17        -3.7710   -7.7470   -1.5380 hx        1 MOL      0.121239
     38 H18        -2.8690   -6.4270   -4.1130 hn        1 MOL      0.352322
     39 H19        -1.9390   -7.5450   -3.3680 hn        1 MOL      0.352322
     40 H20        -3.4210   -7.9590   -4.0420 hn        1 MOL      0.352322
     41 N4          2.2760   -4.6410   -0.7330 n         1 MOL     -0.230222
     42 C13         3.5140   -4.9640   -1.5340 c3        1 MOL      0.073263
     43 C14         4.8460   -4.6260   -0.9360 c         1 MOL      0.433531
     44 O6          5.8200   -5.2520   -1.2300 o         1 MOL     -0.540998
     45 C15         3.3940   -4.2290   -2.8950 c3        1 MOL     -0.349655
     46 C16         2.9080   -2.7600   -2.7860 c         1 MOL      0.714928
     47 O7          1.6790   -2.4940   -2.8770 o         1 MOL     -0.697758
     48 O8          3.7440   -1.7800   -2.6670 o         1 MOL     -0.697758
     49 H21         2.0850   -3.6760   -0.4810 hn        1 MOL      0.199145
     50 H22         3.5850   -6.0430   -1.6980 h1        1 MOL      0.095575
     51 H23         2.6080   -4.7230   -3.4600 hc        1 MOL      0.101046
     52 H24         4.3410   -4.2050   -3.4270 hc        1 MOL      0.101046
     53 N5          4.9330   -3.4640   -0.2750 n         1 MOL     -0.198349
     54 C17         6.1600   -2.8910    0.4060 c3        1 MOL     -0.011216
     55 C18         6.6880   -1.4630    0.0010 c         1 MOL      0.426410
     56 O9          7.7500   -1.0750    0.4910 o         1 MOL     -0.564294
     57 H25         4.0620   -2.9690   -0.1740 hn        1 MOL      0.160217
     58 H26         7.0100   -3.5330    0.1810 h1        1 MOL      0.066918
     59 H27         6.0010   -2.8690    1.4770 h1        1 MOL      0.066918
     60 N6          6.0050   -0.7710   -0.8970 n         1 MOL      0.001120
     61 C19         6.4460    0.4470   -1.5240 c3        1 MOL     -0.121467
     62 C20         6.4220    1.6920   -0.5860 c         1 MOL      0.491433
     63 O10         7.1240    2.6420   -0.8870 o         1 MOL     -0.533558
     64 C21         5.7540    0.6510   -2.8100 c3        1 MOL     -0.040688
     65 C22         4.4290    1.4190   -2.7680 c         1 MOL      0.511097
     66 N7          4.0850    2.0750   -3.8360 n         1 MOL     -0.662038
     67 O11         3.7220    1.4400   -1.7660 o         1 MOL     -0.585182
     68 H28         5.1800   -1.2270   -1.2710 hn        1 MOL      0.041135
     69 H29         7.5170    0.3020   -1.7190 h1        1 MOL      0.089784
     70 H30         5.8040   -0.3290   -3.2980 hc        1 MOL      0.066031
     71 H31         6.4000    1.2460   -3.4580 hc        1 MOL      0.066031
     72 H32         4.6310    2.0760   -4.6850 hn        1 MOL      0.336789
     73 H33         3.2460    2.6290   -3.7420 hn        1 MOL      0.336789
     74 N8          5.5890    1.6910    0.5130 n         1 MOL     -0.171731
     75 C23         5.6640    2.7580    1.5520 c3        1 MOL     -0.296234
     76 C24         4.4190    3.5680    1.5820 c         1 MOL      0.660254
     77 O12         4.3000    4.5650    2.2390 o         1 MOL     -0.562060
     78 H34         5.0450    0.8710    0.7250 hn        1 MOL      0.190092
     79 H35         6.5790    3.3480    1.4550 h1        1 MOL      0.137647
     80 H36         5.8750    2.2940    2.5250 h1        1 MOL      0.137647
     81 N9          3.3830    3.1520    0.8080 n         1 MOL     -0.644186
     82 C25         2.1060    3.8760    0.6230 c3        1 MOL      0.441233
     83 C26         0.9050    2.8750    0.6110 c         1 MOL      0.522707
     84 O13         0.9650    1.8240   -0.0410 o         1 MOL     -0.688959
     85 C27         2.0870    4.7460   -0.6580 c3        1 MOL     -0.046916
     86 C28         2.9990    5.9370   -0.5200 ca        1 MOL     -0.031460
     87 C29         4.0600    6.0730   -1.4300 ca        1 MOL     -0.046248
     88 C30         2.6170    6.9520    0.3850 ca        1 MOL     -0.046248
     89 C31         4.8890    7.2640   -1.3310 ca        1 MOL     -0.427673
     90 C32         3.3940    8.0960    0.4980 ca        1 MOL     -0.427673
     91 C33         4.5600    8.2180   -0.3150 ca        1 MOL      0.517894
     92 O14         5.2060    9.4080   -0.1870 oh        1 MOL     -0.539493
     93 H37         3.4710    2.3460    0.1970 hn        1 MOL      0.396680
     94 H38         1.9290    4.5570    1.4530 h1        1 MOL     -0.036035
     95 H39         1.0950    5.1850   -0.7550 hc        1 MOL     -0.013281
     96 H40         2.2800    4.1080   -1.5140 hc        1 MOL     -0.013281
     97 H41         4.2540    5.3750   -2.2400 ha        1 MOL      0.123493
     98 H42         1.7190    6.9570    0.9930 ha        1 MOL      0.123493
     99 H43         5.7760    7.3730   -1.9330 ha        1 MOL      0.196998
    100 H44         3.2480    8.9020    1.1960 ha        1 MOL      0.196998
    101 H45         4.7130   10.0190    0.3480 ho        1 MOL      0.363761
    102 N10        -0.1230    3.2220    1.3540 n         1 MOL     -0.599861
    103 C34        -1.4050    2.5600    1.2510 c3        1 MOL      0.010749
    104 C35        -2.5210    3.4950    0.8270 c         1 MOL      0.645101
    105 O15        -2.6700    4.6210    1.3230 o         1 MOL     -0.563019
    106 C36        -1.6410    1.9330    2.6850 c3        1 MOL     -0.038480
    107 C37        -0.6550    0.7710    2.9430 c3        1 MOL      0.151855
    108 C38        -3.1180    1.4400    2.9020 c3        1 MOL     -0.094416
    109 C39        -0.6570    0.2060    4.3650 c3        1 MOL     -0.251156
    110 H46        -0.0410    4.0400    1.9350 hn        1 MOL      0.332077
    111 H47        -1.3560    1.7550    0.5130 h1        1 MOL      0.131115
    112 H48        -1.5090    2.7090    3.4380 hc        1 MOL      0.050721
    113 H49         0.3740    1.0700    2.7260 hc        1 MOL      0.013024
    114 H50        -0.8900   -0.1150    2.3460 hc        1 MOL      0.013024
    115 H51        -3.7680    2.3080    2.8880 hc        1 MOL      0.014632
    116 H52        -3.3890    0.6930    2.1530 hc        1 MOL      0.014632
    117 H53        -3.2040    0.9740    3.8910 hc        1 MOL      0.014632
    118 H54         0.3300   -0.2410    4.5030 hc        1 MOL      0.057988
    119 H55        -0.6320    1.0690    5.0210 hc        1 MOL      0.057988
    120 H56        -1.3780   -0.5980    4.5670 hc        1 MOL      0.057988
    121 N11        -3.2360    3.1250   -0.2500 n         1 MOL     -0.396155
    122 C40        -4.4850    3.7450   -0.7040 c3        1 MOL      0.056558
    123 C41        -5.7240    3.2050    0.0890 c         1 MOL      0.423215
    124 O16        -5.5470    2.1110    0.6870 o         1 MOL     -0.383101
    125 C42        -4.5630    3.3760   -2.1860 c3        1 MOL     -0.096215
    126 O17        -4.6130    1.9430   -2.3500 oh        1 MOL     -0.325447
    127 H57        -3.0030    2.2220   -0.6370 hn        1 MOL      0.220758
    128 H58        -4.3850    4.8200   -0.5360 h1        1 MOL      0.090105
    129 H59        -3.7030    3.7530   -2.7200 h1        1 MOL      0.071231
    130 H60        -5.5270    3.7690   -2.5340 h1        1 MOL      0.071231
    131 H61        -4.4150    1.7510   -3.2680 ho        1 MOL      0.357032
    132 N12        -6.9290    3.7620    0.0190 n         1 MOL     -0.413040
    133 C43        -8.0550    3.1470    0.6950 c3        1 MOL      0.099787
    134 C44        -8.6330    1.8090    0.0760 c         1 MOL      0.397637
    135 O18        -9.3580    1.0450    0.7480 o         1 MOL     -0.475739
    136 C45        -9.1550    4.1890    0.7990 c3        1 MOL     -0.376650
    137 H62        -7.0570    4.6330   -0.4780 hn        1 MOL      0.297376
    138 H63        -7.7890    2.9790    1.7430 h1        1 MOL      0.115410
    139 H64        -8.7340    5.1460    1.1190 hc        1 MOL      0.117176
    140 H65        -9.6550    4.4300   -0.1400 hc        1 MOL      0.117176
    141 H66        -9.8230    3.8370    1.5840 hc        1 MOL      0.117176
    142 N13        -8.3920    1.5530   -1.2180 n         1 MOL     -0.359529
    143 C46        -8.5270    0.2870   -1.8450 c3        1 MOL      0.210503
    144 C47        -7.4540   -0.8040   -1.3830 c         1 MOL      0.228178
    145 O19        -7.8140   -1.9780   -1.1290 o         1 MOL     -0.493713
    146 C48        -8.5730    0.5710   -3.3180 c3        1 MOL     -0.199456
    147 H67        -7.9940    2.3320   -1.7370 hn        1 MOL      0.260823
    148 H68        -9.5250   -0.0510   -1.5590 h1        1 MOL      0.084426
    149 H69        -9.5000    1.1310   -3.4430 hc        1 MOL      0.046781
    150 H70        -7.7910    1.3060   -3.5260 hc        1 MOL      0.046781
    151 H71        -8.6400   -0.2580   -4.0080 hc        1 MOL      0.046781
    152 N14        -6.2520   -0.3660   -1.0850 n         1 MOL      0.169603
    153 C49        -5.1970   -1.2200   -0.5590 c3        1 MOL     -0.104425
    154 C50        -5.3830   -1.4790    0.8990 c         1 MOL      0.462721
    155 O20        -5.3820   -2.5960    1.3280 o         1 MOL     -0.541645
    156 C51        -3.7780   -0.6350   -0.9390 c3        1 MOL     -0.070754
    157 C52        -2.6740   -1.5950   -0.4340 c3        1 MOL     -0.136357
    158 C53        -1.2120   -1.1690   -0.7670 c         1 MOL      0.596016
    159 O21        -0.2590   -1.3640    0.0800 o         1 MOL     -0.656780
    160 O22        -0.8970   -0.6380   -1.8850 o         1 MOL     -0.656780
    161 H72        -5.9110    0.5320   -1.3850 hn        1 MOL     -0.107518
    162 H73        -5.3180   -2.1390   -1.1270 h1        1 MOL      0.053540
    163 H74        -3.5720    0.3420   -0.5170 hc        1 MOL      0.009730
    164 H75        -3.6810   -0.5540   -2.0200 hc        1 MOL      0.009730
    165 H76        -2.8480   -2.5890   -0.8490 hc        1 MOL      0.091017
    166 H77        -2.8270   -1.6260    0.6420 hc        1 MOL      0.091017
    167 N15        -5.7020   -0.4060    1.6770 n         1 MOL     -0.012129
    168 C54        -6.1460   -0.5390    3.1070 c3        1 MOL     -0.207907
    169 H78        -7.0540    0.0430    3.2610 h1        1 MOL      0.091224
    170 H79        -6.3440   -1.5870    3.3300 h1        1 MOL      0.091224
    171 H80        -5.3610   -0.1700    3.7670 h1        1 MOL      0.091224
    172 H81        -5.9730    0.4000    1.1450 hn        1 MOL      0.035205
    173 Ca1         1.6130   -0.3620   -1.3000 Ca        1 MOL      1.772240
    174 O23         0.8630    0.7790   -3.6130 oh        1 MOL     -0.926337
    175 H82         0.4590    0.5110   -4.4470 ho        1 MOL      0.442346
    176 H83         0.9780    1.7280   -3.6980 ho        1 MOL      0.442346
@<TRIPOS>BOND
     1    1    2 1   
     2    1    4 1   
     3    1    5 1   
     4    1    6 1   
     5    2    3 2   
     6    2    7 1   
     7    7    8 1   
     8    7   15 1   
     9    8    9 1   
    10    8   11 1   
    11    8   16 1   
    12    9   10 2   
    13    9   19 1   
    14   11   12 1   
    15   11   17 1   
    16   11   18 1   
    17   12   13 1   
    18   12   14 1   
    19   19   20 1   
    20   19   28 1   
    21   20   21 1   
    22   20   23 1   
    23   20   29 1   
    24   21   22 2   
    25   21   41 1   
    26   23   24 1   
    27   23   30 1   
    28   23   31 1   
    29   24   25 1   
    30   24   32 1   
    31   24   33 1   
    32   25   26 1   
    33   25   34 1   
    34   25   35 1   
    35   26   27 1   
    36   26   36 1   
    37   26   37 1   
    38   27   38 1   
    39   27   39 1   
    40   27   40 1   
    41   41   42 1   
    42   41   49 1   
    43   42   43 1   
    44   42   45 1   
    45   42   50 1   
    46   43   44 2   
    47   43   53 1   
    48   45   46 1   
    49   45   51 1   
    50   45   52 1   
    51   46   47 1   
    52   46   48 1   
    53   53   54 1   
    54   53   57 1   
    55   54   55 1   
    56   54   58 1   
    57   54   59 1   
    58   55   56 2   
    59   55   60 1   
    60   60   61 1   
    61   60   68 1   
    62   61   62 1   
    63   61   64 1   
    64   61   69 1   
    65   62   63 2   
    66   62   74 1   
    67   64   65 1   
    68   64   70 1   
    69   64   71 1   
    70   65   66 1   
    71   65   67 2   
    72   66   72 1   
    73   66   73 1   
    74   74   75 1   
    75   74   78 1   
    76   75   76 1   
    77   75   79 1   
    78   75   80 1   
    79   76   77 2   
    80   76   81 1   
    81   81   82 1   
    82   81   93 1   
    83   82   83 1   
    84   82   85 1   
    85   82   94 1   
    86   83   84 2   
    87   83  102 1   
    88   85   86 1   
    89   85   95 1   
    90   85   96 1   
    91   86   87 ar  
    92   86   88 ar  
    93   87   89 ar  
    94   87   97 1   
    95   88   90 ar  
    96   88   98 1   
    97   89   91 ar  
    98   89   99 1   
    99   90   91 ar  
   100   90  100 1   
   101   91   92 1   
   102   92  101 1   
   103  102  103 1   
   104  102  110 1   
   105  103  104 1   
   106  103  106 1   
   107  103  111 1   
   108  104  105 2   
   109  104  121 1   
   110  106  107 1   
   111  106  108 1   
   112  106  112 1   
   113  107  109 1   
   114  107  113 1   
   115  107  114 1   
   116  108  115 1   
   117  108  116 1   
   118  108  117 1   
   119  109  118 1   
   120  109  119 1   
   121  109  120 1   
   122  121  122 1   
   123  121  127 1   
   124  122  123 1   
   125  122  125 1   
   126  122  128 1   
   127  123  124 2   
   128  123  132 1   
   129  125  126 1   
   130  125  129 1   
   131  125  130 1   
   132  126  131 1   
   133  132  133 1   
   134  132  137 1   
   135  133  134 1   
   136  133  136 1   
   137  133  138 1   
   138  134  135 2   
   139  134  142 1   
   140  136  139 1   
   141  136  140 1   
   142  136  141 1   
   143  142  143 1   
   144  142  147 1   
   145  143  144 1   
   146  143  146 1   
   147  143  148 1   
   148  144  145 2   
   149  144  152 1   
   150  146  149 1   
   151  146  150 1   
   152  146  151 1   
   153  152  153 1   
   154  152  161 1   
   155  153  154 1   
   156  153  156 1   
   157  153  162 1   
   158  154  155 2   
   159  154  167 1   
   160  156  157 1   
   161  156  163 1   
   162  156  164 1   
   163  157  158 1   
   164  157  165 1   
   165  157  166 1   
   166  158  159 1   
   167  158  160 1   
   168  167  168 1   
   169  167  172 1   
   170  168  169 1   
   171  168  170 1   
   172  168  171 1   
   173  174  175 1   
   174  174  176 1   
@<TRIPOS>SUBSTRUCTURE
     1 MOL         1 TEMP              0 ****  ****    0 ROOT
