@<TRIPOS>MOLECULE
MOL
  179   176     1     0     0
SMALL
resp


@<TRIPOS>ATOM
      1 C1          2.7090    3.0860    3.8160 c3        1 MOL     -0.239837
      2 C2          1.8490    2.8590    2.5690 c         1 MOL      0.604248
      3 O1          2.2510    3.1100    1.4360 o         1 MOL     -0.533665
      4 H1          2.5840    2.2460    4.5000 hc        1 MOL      0.061174
      5 H2          3.7570    3.1650    3.5270 hc        1 MOL      0.061174
      6 H3          2.3970    4.0050    4.3110 hc        1 MOL      0.061174
      7 N1          0.5980    2.5110    2.8850 n         1 MOL     -0.456990
      8 C3         -0.4520    2.4440    1.8910 c3        1 MOL      0.005764
      9 C4         -0.9860    3.8000    1.4190 c         1 MOL      0.590781
     10 O2         -2.1550    4.2690    1.5380 o         1 MOL     -0.453632
     11 C5         -1.6310    1.6020    2.3870 c3        1 MOL     -0.180498
     12 C6         -2.8840    1.3720    1.4840 c         1 MOL      0.417582
     13 O3         -3.9930    1.1900    2.0280 o         1 MOL     -0.557839
     14 O4         -2.6750    1.3400    0.2900 o         1 MOL     -0.557839
     15 H4          0.4610    2.3070    3.8650 hn        1 MOL      0.292950
     16 H5         -0.0340    1.9630    0.9970 h1        1 MOL      0.114530
     17 H6         -1.9640    1.9960    3.3410 hc        1 MOL      0.068280
     18 H7         -1.2700    0.6020    2.6440 hc        1 MOL      0.068280
     19 N2         -0.0930    4.6160    0.8830 n         1 MOL     -0.542158
     20 C7         -0.4080    5.9900    0.4910 c3        1 MOL     -0.087598
     21 C8         -1.4440    6.1540   -0.5710 c         1 MOL      0.463925
     22 O5         -2.1270    7.2040   -0.5760 o         1 MOL     -0.551419
     23 C9          0.8490    6.6920   -0.0970 c3        1 MOL     -0.285088
     24 C10         1.8900    6.7810    1.0180 c3        1 MOL      0.530935
     25 C11         3.0550    7.5690    0.4260 c3        1 MOL     -0.009464
     26 C12         4.1820    7.5490    1.5380 c3        1 MOL     -0.212306
     27 N3          3.7910    8.3350    2.7330 n4        1 MOL     -0.305100
     28 H8          0.8780    4.3490    0.7990 hn        1 MOL      0.342882
     29 H9         -0.6700    6.5100    1.4070 h1        1 MOL      0.121140
     30 H10         0.5720    7.6380   -0.5650 hc        1 MOL      0.110000
     31 H11         1.2840    6.0740   -0.8850 hc        1 MOL      0.110000
     32 H12         2.2470    5.7910    1.3040 hc        1 MOL     -0.129269
     33 H13         1.4160    7.3450    1.8190 hc        1 MOL     -0.129269
     34 H14         2.7120    8.6020    0.3010 hc        1 MOL      0.017690
     35 H15         3.3740    7.1620   -0.5430 hc        1 MOL      0.017690
     36 H16         5.0030    8.1890    1.2340 hx        1 MOL      0.158140
     37 H17         4.5180    6.5250    1.7170 hx        1 MOL      0.158140
     38 H18         3.1450    7.8370    3.3320 hn        1 MOL      0.316199
     39 H19         4.6250    8.5320    3.2780 hn        1 MOL      0.316199
     40 H20         3.3030    9.1810    2.4710 hn        1 MOL      0.316199
     41 N4         -1.6260    5.2000   -1.4750 n         1 MOL     -0.344444
     42 C13        -2.7370    5.0260   -2.4330 c3        1 MOL      0.086706
     43 C14        -4.0710    4.6750   -1.7340 c         1 MOL      0.395549
     44 O6         -5.1690    4.8310   -2.2630 o         1 MOL     -0.550156
     45 C15        -2.3220    3.9260   -3.4160 c3        1 MOL     -0.170578
     46 C16        -2.0240    2.5810   -2.8260 c         1 MOL      0.687599
     47 O7         -1.0580    2.4880   -2.0180 o         1 MOL     -0.713566
     48 O8         -2.8970    1.7020   -2.9500 o         1 MOL     -0.713566
     49 H21        -1.0300    4.3870   -1.3510 hn        1 MOL      0.240894
     50 H22        -2.9740    5.9160   -3.0140 h1        1 MOL      0.084854
     51 H23        -1.5480    4.3310   -4.0750 hc        1 MOL      0.043960
     52 H24        -3.2130    3.8740   -4.0570 hc        1 MOL      0.043960
     53 N5         -4.0710    4.1380   -0.5190 n         1 MOL      0.073312
     54 C17        -5.2410    3.8640    0.2270 c3        1 MOL     -0.308176
     55 C18        -5.9730    2.6090   -0.2080 c         1 MOL      0.620496
     56 O9         -7.1880    2.6000   -0.0690 o         1 MOL     -0.604698
     57 H25        -3.1820    3.9570   -0.0860 hn        1 MOL      0.039057
     58 H26        -5.9490    4.6820    0.0990 h1        1 MOL      0.129087
     59 H27        -4.9310    3.7310    1.2580 h1        1 MOL      0.129087
     60 N6         -5.3700    1.5010   -0.6770 n         1 MOL     -0.163072
     61 C19        -6.1410    0.4200   -1.3070 c3        1 MOL     -0.007318
     62 C20        -6.4390   -0.6920   -0.2080 c         1 MOL      0.259173
     63 O10        -7.2290   -1.6120   -0.4160 o         1 MOL     -0.508068
     64 C21        -5.5360   -0.1110   -2.6010 c3        1 MOL     -0.176871
     65 C22        -4.5030   -1.2660   -2.4750 c         1 MOL      0.426338
     66 N7         -4.6130   -2.3450   -3.1870 n         1 MOL     -0.521456
     67 O11        -3.5890   -1.1930   -1.6710 o         1 MOL     -0.549711
     68 H28        -4.3590    1.4740   -0.7320 hn        1 MOL      0.082145
     69 H29        -7.0910    0.8140   -1.6460 h1        1 MOL      0.129781
     70 H30        -5.0920    0.6170   -3.2670 hc        1 MOL      0.088685
     71 H31        -6.4110   -0.4860   -3.1170 hc        1 MOL      0.088685
     72 H32        -5.2570   -2.4380   -3.9640 hn        1 MOL      0.305230
     73 H33        -3.9910   -3.1330   -3.0710 hn        1 MOL      0.305230
     74 N8         -5.8920   -0.5990    0.9560 n         1 MOL      0.033974
     75 C23        -6.0490   -1.5670    2.0970 c3        1 MOL     -0.400044
     76 C24        -4.8440   -2.3080    2.4360 c         1 MOL      0.751449
     77 O12        -4.7900   -2.9530    3.4580 o         1 MOL     -0.626572
     78 H34        -5.1980    0.1160    1.0880 hn        1 MOL      0.084865
     79 H35        -6.9140   -2.2230    2.0030 h1        1 MOL      0.161764
     80 H36        -6.0810   -0.9070    2.9590 h1        1 MOL      0.161764
     81 N9         -3.8730   -2.3610    1.5590 n         1 MOL     -0.437528
     82 C25        -2.7550   -3.2880    1.4260 c3        1 MOL     -0.042192
     83 C26        -1.3950   -2.5380    1.2320 c         1 MOL      0.517111
     84 O13        -1.1630   -1.7080    0.3410 o         1 MOL     -0.625034
     85 C27        -3.0870   -4.2410    0.2760 c3        1 MOL      0.078162
     86 C28        -4.3940   -5.0590    0.4200 ca        1 MOL      0.034373
     87 C29        -4.5540   -6.1800    1.2450 ca        1 MOL     -0.172446
     88 C30        -5.5240   -4.6590   -0.3430 ca        1 MOL     -0.172446
     89 C31        -5.7560   -6.8670    1.5010 ca        1 MOL     -0.275148
     90 C32        -6.7680   -5.3690   -0.2600 ca        1 MOL     -0.275148
     91 C33        -6.8200   -6.4340    0.6760 ca        1 MOL      0.375037
     92 O14        -7.9920   -7.0830    0.8100 oh        1 MOL     -0.510851
     93 H37        -4.0260   -1.8060    0.7290 hn        1 MOL      0.386525
     94 H38        -2.7010   -3.8920    2.3190 h1        1 MOL      0.090496
     95 H39        -2.3090   -5.0060    0.2490 hc        1 MOL     -0.014218
     96 H40        -3.0530   -3.6730   -0.6500 hc        1 MOL     -0.014218
     97 H41        -3.7400   -6.4590    1.8870 ha        1 MOL      0.124637
     98 H42        -5.4970   -3.7870   -0.9870 ha        1 MOL      0.124637
     99 H43        -5.9060   -7.6010    2.2740 ha        1 MOL      0.165907
    100 H44        -7.5580   -5.1950   -0.9780 ha        1 MOL      0.165907
    101 H45        -7.9880   -7.7490    1.5050 ho        1 MOL      0.365810
    102 N10        -0.4000   -2.9890    2.0380 n         1 MOL     -0.328358
    103 C34         1.0030   -2.6310    1.9020 c3        1 MOL     -0.000763
    104 C35         1.7300   -3.5840    1.0440 c         1 MOL      0.470579
    105 O15         1.5980   -4.7940    1.1990 o         1 MOL     -0.562992
    106 C36         1.6720   -2.5410    3.3220 c3        1 MOL      0.030991
    107 C37         1.1370   -1.4110    4.1880 c3        1 MOL      0.136628
    108 C38         3.2170   -2.4480    3.3450 c3        1 MOL     -0.212709
    109 C39         1.5470   -1.4760    5.6990 c3        1 MOL     -0.067217
    110 H46        -0.6040   -3.6300    2.7780 hn        1 MOL      0.249797
    111 H47         1.1040   -1.6570    1.4270 h1        1 MOL      0.116272
    112 H48         1.3770   -3.4460    3.8540 hc        1 MOL      0.030158
    113 H49         0.0540   -1.3240    4.1390 hc        1 MOL     -0.048682
    114 H50         1.5960   -0.5180    3.7530 hc        1 MOL     -0.048682
    115 H51         3.6020   -1.6010    2.7780 hc        1 MOL      0.045859
    116 H52         3.6160   -2.3440    4.3600 hc        1 MOL      0.045859
    117 H53         3.6480   -3.3850    2.9880 hc        1 MOL      0.045859
    118 H54         1.2770   -2.4990    5.9650 hc        1 MOL      0.016040
    119 H55         2.5920   -1.3210    5.9650 hc        1 MOL      0.016040
    120 H56         0.9930   -0.7710    6.3210 hc        1 MOL      0.016040
    121 N11         2.4860   -3.0980    0.0580 n         1 MOL     -0.099456
    122 C40         3.4610   -3.8370   -0.7280 c3        1 MOL     -0.022104
    123 C41         4.8990   -3.6030   -0.1640 c         1 MOL      0.469627
    124 O16         5.1620   -2.5680    0.3960 o         1 MOL     -0.432889
    125 C42         3.3920   -3.4520   -2.2220 c3        1 MOL      0.283956
    126 O17         2.2790   -4.0640   -2.7220 oh        1 MOL     -0.624103
    127 H57         2.3850   -2.1200   -0.1520 hn        1 MOL      0.174110
    128 H58         3.3350   -4.9200   -0.6370 h1        1 MOL      0.073017
    129 H59         4.3050   -3.5630   -2.8000 h1        1 MOL     -0.044283
    130 H60         3.1740   -2.3870   -2.2660 h1        1 MOL     -0.044283
    131 H61         2.2430   -3.9000   -3.6720 ho        1 MOL      0.406597
    132 N12         5.7900   -4.4820   -0.4710 n         1 MOL     -0.473743
    133 C43         7.1740   -4.4260   -0.1920 c3        1 MOL      0.186475
    134 C44         7.7890   -3.1320   -0.8220 c         1 MOL      0.426486
    135 O18         8.4430   -2.3950   -0.0960 o         1 MOL     -0.496754
    136 C45         7.9450   -5.6600   -0.6460 c3        1 MOL     -0.257231
    137 H62         5.5670   -5.1810   -1.1540 hn        1 MOL      0.285441
    138 H63         7.3640   -4.3780    0.8770 h1        1 MOL      0.081795
    139 H64         8.9400   -5.6020   -0.2190 hc        1 MOL      0.075979
    140 H65         7.4360   -6.5610   -0.2850 hc        1 MOL      0.075979
    141 H66         7.9930   -5.7260   -1.7310 hc        1 MOL      0.075979
    142 N13         7.3700   -2.8140   -2.0430 n         1 MOL     -0.333861
    143 C46         7.7150   -1.5470   -2.7400 c3        1 MOL      0.081077
    144 C47         7.2160   -0.3100   -2.0110 c         1 MOL      0.287239
    145 O19         7.8800    0.7390   -1.9790 o         1 MOL     -0.495470
    146 C48         6.9410   -1.5300   -4.0810 c3        1 MOL     -0.336180
    147 H67         6.8850   -3.4850   -2.6040 hn        1 MOL      0.228810
    148 H68         8.8010   -1.5830   -2.8480 h1        1 MOL      0.106122
    149 H69         5.9150   -1.8300   -3.8680 hc        1 MOL      0.105910
    150 H70         6.9740   -0.5650   -4.5780 hc        1 MOL      0.105910
    151 H71         7.3940   -2.2190   -4.7910 hc        1 MOL      0.105910
    152 N14         6.0570   -0.3320   -1.3060 n         1 MOL      0.102254
    153 C49         5.5610    0.7960   -0.5530 c3        1 MOL     -0.363792
    154 C50         6.1890    0.9190    0.7920 c         1 MOL      0.526639
    155 O20         6.4460    2.0040    1.3390 o         1 MOL     -0.569903
    156 C51         4.0490    0.6790   -0.5090 c3        1 MOL      0.331063
    157 C52         3.2960    0.6520   -1.8440 c3        1 MOL     -0.014929
    158 C53         1.8120    0.3130   -1.7500 c         1 MOL      0.677167
    159 O21         1.0290    0.6070   -2.7620 o         1 MOL     -0.752387
    160 O22         1.3160   -0.1550   -0.7600 o         1 MOL     -0.752387
    161 H72         5.5220   -1.1830   -1.3630 hn        1 MOL      0.094399
    162 H73         5.8640    1.6760   -1.1190 h1        1 MOL      0.150405
    163 H74         3.6950    1.5040    0.1120 hc        1 MOL     -0.080378
    164 H75         3.7800   -0.2490   -0.0020 hc        1 MOL     -0.080378
    165 H76         3.7750   -0.0120   -2.5630 hc        1 MOL     -0.030223
    166 H77         3.3750    1.6610   -2.2610 hc        1 MOL     -0.030223
    167 N15         6.6150   -0.2130    1.3390 n         1 MOL     -0.082012
    168 C54         7.5350   -0.2170    2.4740 c3        1 MOL     -0.370878
    169 H78         7.7020   -1.2430    2.8030 h1        1 MOL      0.130883
    170 H79         8.4840    0.2260    2.1740 h1        1 MOL      0.130883
    171 H80         7.1060    0.3610    3.2920 h1        1 MOL      0.130883
    172 H81         6.4210   -1.1190    0.9340 hn        1 MOL      0.121210
    173 Ca1        -1.2030   -0.0100   -1.6080 Ca        1 MOL      1.748439
    174 O23        -0.1640   -2.5310   -2.4460 oh        1 MOL     -0.795953
    175 H82         0.6890   -2.8730   -2.1840 ho        1 MOL      0.392640
    176 H83        -0.3720   -2.9890   -3.2610 ho        1 MOL      0.392640
    177 O24        -1.3230   -0.6750   -4.5300 oh        1 MOL     -0.795953
    178 H84        -1.1430    0.2140   -4.8500 ho        1 MOL      0.392640
    179 H85        -2.1030   -0.9500   -4.9990 ho        1 MOL      0.392640
@<TRIPOS>BOND
     1    1    2 1   
     2    1    4 1   
     3    1    5 1   
     4    1    6 1   
     5    2    3 2   
     6    2    7 1   
     7    7    8 1   
     8    7   15 1   
     9    8    9 1   
    10    8   11 1   
    11    8   16 1   
    12    9   10 2   
    13    9   19 1   
    14   11   12 1   
    15   11   17 1   
    16   11   18 1   
    17   12   13 1   
    18   12   14 1   
    19   19   20 1   
    20   19   28 1   
    21   20   21 1   
    22   20   23 1   
    23   20   29 1   
    24   21   22 2   
    25   21   41 1   
    26   23   24 1   
    27   23   30 1   
    28   23   31 1   
    29   24   25 1   
    30   24   32 1   
    31   24   33 1   
    32   25   26 1   
    33   25   34 1   
    34   25   35 1   
    35   26   27 1   
    36   26   36 1   
    37   26   37 1   
    38   27   38 1   
    39   27   39 1   
    40   27   40 1   
    41   41   42 1   
    42   41   49 1   
    43   42   43 1   
    44   42   45 1   
    45   42   50 1   
    46   43   44 2   
    47   43   53 1   
    48   45   46 1   
    49   45   51 1   
    50   45   52 1   
    51   46   47 1   
    52   46   48 1   
    53   53   54 1   
    54   53   57 1   
    55   54   55 1   
    56   54   58 1   
    57   54   59 1   
    58   55   56 2   
    59   55   60 1   
    60   60   61 1   
    61   60   68 1   
    62   61   62 1   
    63   61   64 1   
    64   61   69 1   
    65   62   63 2   
    66   62   74 1   
    67   64   65 1   
    68   64   70 1   
    69   64   71 1   
    70   65   66 1   
    71   65   67 2   
    72   66   72 1   
    73   66   73 1   
    74   74   75 1   
    75   74   78 1   
    76   75   76 1   
    77   75   79 1   
    78   75   80 1   
    79   76   77 2   
    80   76   81 1   
    81   81   82 1   
    82   81   93 1   
    83   82   83 1   
    84   82   85 1   
    85   82   94 1   
    86   83   84 2   
    87   83  102 1   
    88   85   86 1   
    89   85   95 1   
    90   85   96 1   
    91   86   87 ar  
    92   86   88 ar  
    93   87   89 ar  
    94   87   97 1   
    95   88   90 ar  
    96   88   98 1   
    97   89   91 ar  
    98   89   99 1   
    99   90   91 ar  
   100   90  100 1   
   101   91   92 1   
   102   92  101 1   
   103  102  103 1   
   104  102  110 1   
   105  103  104 1   
   106  103  106 1   
   107  103  111 1   
   108  104  105 2   
   109  104  121 1   
   110  106  107 1   
   111  106  108 1   
   112  106  112 1   
   113  107  109 1   
   114  107  113 1   
   115  107  114 1   
   116  108  115 1   
   117  108  116 1   
   118  108  117 1   
   119  109  118 1   
   120  109  119 1   
   121  109  120 1   
   122  121  122 1   
   123  121  127 1   
   124  122  123 1   
   125  122  125 1   
   126  122  128 1   
   127  123  124 2   
   128  123  132 1   
   129  125  126 1   
   130  125  129 1   
   131  125  130 1   
   132  126  131 1   
   133  132  133 1   
   134  132  137 1   
   135  133  134 1   
   136  133  136 1   
   137  133  138 1   
   138  134  135 2   
   139  134  142 1   
   140  136  139 1   
   141  136  140 1   
   142  136  141 1   
   143  142  143 1   
   144  142  147 1   
   145  143  144 1   
   146  143  146 1   
   147  143  148 1   
   148  144  145 2   
   149  144  152 1   
   150  146  149 1   
   151  146  150 1   
   152  146  151 1   
   153  152  153 1   
   154  152  161 1   
   155  153  154 1   
   156  153  156 1   
   157  153  162 1   
   158  154  155 2   
   159  154  167 1   
   160  156  157 1   
   161  156  163 1   
   162  156  164 1   
   163  157  158 1   
   164  157  165 1   
   165  157  166 1   
   166  158  159 1   
   167  158  160 1   
   168  167  168 1   
   169  167  172 1   
   170  168  169 1   
   171  168  170 1   
   172  168  171 1   
   173  174  175 1   
   174  174  176 1   
   175  177  178 1   
   176  177  179 1   
@<TRIPOS>SUBSTRUCTURE
     1 MOL         1 TEMP              0 ****  ****    0 ROOT
