@<TRIPOS>MOLECULE
MOL
  172   171     1     0     0
SMALL
resp


@<TRIPOS>ATOM
      1 C1         -0.0860   -4.2600    5.5820 c3        1 MOL     -0.461987
      2 C2          0.3980   -4.1750    4.1400 c         1 MOL      0.794904
      3 O1         -0.1320   -4.7530    3.2330 o         1 MOL     -0.604388
      4 H1         -1.1570   -4.4670    5.5940 hc        1 MOL      0.113127
      5 H2          0.4430   -5.0610    6.0970 hc        1 MOL      0.113127
      6 H3          0.1050   -3.3130    6.0870 hc        1 MOL      0.113127
      7 N1          1.4660   -3.4270    3.8460 n         1 MOL     -0.654398
      8 C3          1.7140   -2.9080    2.5300 c3        1 MOL      0.236303
      9 C4          2.2930   -3.9590    1.5440 c         1 MOL      0.482960
     10 O2          3.3550   -4.5660    1.7750 o         1 MOL     -0.562527
     11 C5          2.5380   -1.6280    2.6780 c3        1 MOL     -0.074789
     12 C6          2.9410   -1.0080    1.3590 c         1 MOL      0.792544
     13 O3          3.4700    0.1190    1.4000 o         1 MOL     -0.795160
     14 O4          2.6290   -1.5470    0.2820 o         1 MOL     -0.795160
     15 H4          1.9310   -2.9940    4.6220 hn        1 MOL      0.293767
     16 H5          0.7660   -2.5130    2.1600 h1        1 MOL      0.006492
     17 H6          3.4700   -1.7760    3.2220 hc        1 MOL      0.006069
     18 H7          1.9690   -0.9330    3.2930 hc        1 MOL      0.006069
     19 N2          1.4370   -4.0830    0.4820 n         1 MOL     -0.275295
     20 C7          1.4270   -5.1350   -0.5340 c3        1 MOL      0.202223
     21 C8          2.4710   -4.8250   -1.5820 c         1 MOL      0.337343
     22 O5          2.7470   -5.6990   -2.4430 o         1 MOL     -0.580279
     23 C9          0.0750   -5.5440   -1.1040 c3        1 MOL     -0.279256
     24 H8          0.7820   -3.3640    0.2150 hn        1 MOL      0.258343
     25 H9          1.7540   -6.0130    0.0230 h1        1 MOL      0.039645
     26 H10         0.1880   -6.5040   -1.6020 hc        1 MOL      0.072555
     27 H11        -0.6100   -5.6470   -0.2640 hc        1 MOL      0.072555
     28 H12        -0.2420   -4.7430   -1.7690 hc        1 MOL      0.072555
     29 N3          3.1320   -3.6720   -1.5590 n         1 MOL     -0.063623
     30 C10         4.3960   -3.5200   -2.2760 c3        1 MOL      0.191748
     31 C11         5.5610   -3.2240   -1.2770 c         1 MOL      0.269857
     32 O6          6.7180   -3.6530   -1.4390 o         1 MOL     -0.514601
     33 C12         4.3340   -2.4340   -3.4290 c3        1 MOL     -0.346374
     34 C13         3.6110   -1.1430   -3.0340 c         1 MOL      0.875880
     35 O7          2.5320   -0.8490   -3.4930 o         1 MOL     -0.761138
     36 O8          4.0650   -0.4400   -2.0990 o         1 MOL     -0.761138
     37 H13         2.7200   -3.0220   -0.9050 hn        1 MOL      0.029311
     38 H14         4.6750   -4.4460   -2.7810 h1        1 MOL      0.060280
     39 H15         3.8190   -2.9150   -4.2640 hc        1 MOL      0.077206
     40 H16         5.3300   -2.1960   -3.7860 hc        1 MOL      0.077206
     41 N4          5.1990   -2.5710   -0.1430 n         1 MOL      0.032738
     42 C14         6.1190   -2.0930    0.9200 c3        1 MOL     -0.089388
     43 C15         6.8320   -0.8270    0.5160 c         1 MOL      0.589336
     44 O9          7.9380   -0.5650    0.9280 o         1 MOL     -0.653195
     45 H17         4.2920   -2.1300   -0.1670 hn        1 MOL     -0.119190
     46 H18         6.8600   -2.7720    1.3260 h1        1 MOL      0.072075
     47 H19         5.5500   -1.6640    1.7450 h1        1 MOL      0.072075
     48 N5          6.3360    0.0300   -0.3590 n         1 MOL     -0.123943
     49 C16         6.9950    1.2420   -0.8340 c3        1 MOL     -0.268794
     50 C17         6.8950    2.5590    0.0450 c         1 MOL      0.600501
     51 O10         7.1010    3.6380   -0.4910 o         1 MOL     -0.545627
     52 C18         6.5510    1.5660   -2.2190 c3        1 MOL     -0.025455
     53 C19         6.8420    0.5380   -3.3480 c         1 MOL      0.606935
     54 N6          6.0020    0.5900   -4.3530 n         1 MOL     -0.793279
     55 O11         7.8800   -0.1180   -3.3610 o         1 MOL     -0.553183
     56 H20         5.4480   -0.2360   -0.7750 hn        1 MOL      0.209468
     57 H21         8.0740    1.1120   -0.8710 h1        1 MOL      0.146758
     58 H22         6.8820    2.5100   -2.6520 hc        1 MOL      0.031396
     59 H23         5.4760    1.7580   -2.2300 hc        1 MOL      0.031396
     60 H24         5.2510    1.2630   -4.3420 hn        1 MOL      0.360075
     61 H25         6.1260   -0.0900   -5.0890 hn        1 MOL      0.360075
     62 N7          6.7120    2.4200    1.3880 n         1 MOL     -0.424741
     63 C20         6.5190    3.4340    2.3790 c3        1 MOL     -0.099268
     64 C21         5.1650    4.1670    2.3430 c         1 MOL      0.508165
     65 O12         5.1610    5.1360    3.1070 o         1 MOL     -0.581798
     66 H26         6.4860    1.4800    1.6870 hn        1 MOL      0.297594
     67 H27         7.3280    4.1470    2.2370 h1        1 MOL      0.098845
     68 H28         6.7070    3.0550    3.3800 h1        1 MOL      0.098845
     69 N8          4.2130    3.7550    1.5400 n         1 MOL     -0.205211
     70 C22         2.9360    4.4070    1.4650 c3        1 MOL     -0.178239
     71 C23         1.8790    3.4180    0.9830 c         1 MOL      0.628364
     72 O13         2.1120    2.4580    0.2980 o         1 MOL     -0.456123
     73 C24         2.8740    5.5670    0.4200 c3        1 MOL      0.305599
     74 C25         3.7320    6.7740    0.6140 c3        1 MOL     -0.357248
     75 O14         2.9810    5.0700   -0.9320 oh        1 MOL     -0.617409
     76 H29         4.3960    2.9490    0.9600 hn        1 MOL      0.231494
     77 H30         2.6490    4.7900    2.4490 h1        1 MOL      0.106492
     78 H31         1.8350    5.8940    0.4770 h1        1 MOL      0.011413
     79 H32         3.0650    5.8250   -1.5220 ho        1 MOL      0.401858
     80 H33         3.3170    7.6990    0.2220 hc        1 MOL      0.098760
     81 H34         4.0000    7.0040    1.6480 hc        1 MOL      0.098760
     82 H35         4.6920    6.6600    0.1020 hc        1 MOL      0.098760
     83 N9          0.7730    3.5930    1.6840 n         1 MOL     -0.469464
     84 C26        -0.3770    2.6280    1.6480 c3        1 MOL     -0.033085
     85 C27        -1.3480    3.0380    0.5560 c         1 MOL      0.604808
     86 O15        -1.6670    4.1940    0.3530 o         1 MOL     -0.613429
     87 C28        -0.9610    2.3850    3.0790 c3        1 MOL      0.052220
     88 C29         0.0330    1.5040    3.8780 c3        1 MOL      0.231996
     89 C30        -2.3640    1.6320    3.0210 c3        1 MOL     -0.208355
     90 C31        -0.3430    1.2840    5.3410 c3        1 MOL     -0.388675
     91 H36         0.7270    4.3910    2.3000 hn        1 MOL      0.282590
     92 H37         0.0090    1.6340    1.4230 h1        1 MOL      0.002489
     93 H38        -1.0370    3.3720    3.5420 hc        1 MOL      0.010565
     94 H39         0.9890    2.0250    3.9280 hc        1 MOL     -0.002542
     95 H40         0.0290    0.5380    3.3810 hc        1 MOL     -0.002542
     96 H41        -3.1390    2.2740    2.5870 hc        1 MOL      0.053152
     97 H42        -2.2810    0.6910    2.4760 hc        1 MOL      0.053152
     98 H43        -2.6930    1.3140    4.0030 hc        1 MOL      0.053152
     99 H44        -0.3150    2.2470    5.8680 hc        1 MOL      0.078228
    100 H45        -1.3330    0.8520    5.4330 hc        1 MOL      0.078228
    101 H46         0.3020    0.5000    5.7280 hc        1 MOL      0.078228
    102 N10        -1.8600    2.0970   -0.2230 n         1 MOL     -0.021373
    103 C32        -2.9310    2.2260   -1.2480 c3        1 MOL      0.018293
    104 C33        -4.3070    1.8870   -0.7000 c         1 MOL      0.273825
    105 O16        -4.4040    1.1470    0.3120 o         1 MOL     -0.196360
    106 C34        -2.6850    1.3230   -2.5030 c3        1 MOL     -0.134234
    107 C35        -1.2620    1.5430   -3.0670 c         1 MOL      0.679427
    108 O17        -0.3340    0.9240   -2.5080 o         1 MOL     -0.678284
    109 O18        -1.1390    2.2900   -4.0480 o         1 MOL     -0.678284
    110 H47        -1.5930    1.1470   -0.0070 hn        1 MOL     -0.311606
    111 H48        -2.7870    3.2550   -1.5990 h1        1 MOL      0.084390
    112 H49        -3.4080    1.5990   -3.2700 hc        1 MOL      0.044157
    113 H50        -2.8480    0.2830   -2.2260 hc        1 MOL      0.044157
    114 N11        -5.4300    2.2940   -1.3300 n         1 MOL     -0.493962
    115 C36        -6.7460    1.9740   -0.7580 c3        1 MOL      0.135590
    116 C37        -6.9350    0.4190   -0.5880 c         1 MOL      0.537319
    117 O19        -7.3060    0.0370    0.5040 o         1 MOL     -0.531611
    118 C38        -7.8610    2.5260   -1.6950 c3        1 MOL     -0.109983
    119 C39        -9.2620    2.1120   -1.3150 ca        1 MOL      0.027964
    120 C40        -9.8240    2.5720   -0.1260 ca        1 MOL     -0.137422
    121 C41        -9.9930    1.2410   -2.2080 ca        1 MOL     -0.137422
    122 C42       -11.1360    2.2230    0.2140 ca        1 MOL     -0.128222
    123 C43       -11.3070    0.8710   -1.8110 ca        1 MOL     -0.128222
    124 C44       -11.8880    1.3360   -0.6200 ca        1 MOL     -0.091162
    125 H51        -5.4000    2.6180   -2.2950 hn        1 MOL      0.296550
    126 H52        -6.5950    2.4230    0.2210 h1        1 MOL      0.077924
    127 H53        -7.7000    2.2250   -2.7310 hc        1 MOL      0.052321
    128 H54        -7.7680    3.6140   -1.7260 hc        1 MOL      0.052321
    129 H55        -9.2140    3.2730    0.4170 ha        1 MOL      0.112731
    130 H56        -9.5730    0.9030   -3.1450 ha        1 MOL      0.112731
    131 H57       -11.5970    2.5670    1.1330 ha        1 MOL      0.113099
    132 H58       -11.8540    0.1480   -2.4000 ha        1 MOL      0.113099
    133 H59       -12.9050    1.0520   -0.3740 ha        1 MOL      0.098284
    134 N12        -6.5450   -0.5060   -1.5340 n         1 MOL     -0.074582
    135 C45        -6.8470   -1.8800   -1.3440 c3        1 MOL     -0.154896
    136 C46        -5.9960   -2.4720   -0.1660 c         1 MOL      0.439620
    137 O20        -6.5440   -3.3340    0.5130 o         1 MOL     -0.498342
    138 C47        -6.4690   -2.5360   -2.6520 c3        1 MOL     -0.045438
    139 C48        -5.3980   -1.7040   -3.3680 c3        1 MOL     -0.075073
    140 C49        -6.0460   -0.3760   -2.9570 c3        1 MOL      0.003203
    141 H60        -7.8830   -2.0270   -1.0590 h1        1 MOL      0.103694
    142 H61        -6.1350   -3.5770   -2.5690 hc        1 MOL      0.041507
    143 H62        -7.2180   -2.7330   -3.4150 hc        1 MOL      0.041507
    144 H63        -4.3900   -1.8390   -2.9550 hc        1 MOL      0.069065
    145 H64        -5.2930   -1.8280   -4.4480 hc        1 MOL      0.069065
    146 H65        -5.3800    0.4620   -3.1220 h1        1 MOL      0.003833
    147 H66        -6.9430   -0.2660   -3.5810 h1        1 MOL      0.003833
    148 N13        -4.7750   -1.9840    0.0560 n         1 MOL     -0.284309
    149 C50        -3.9910   -2.2900    1.2950 c3        1 MOL     -0.127352
    150 C51        -4.7520   -1.8050    2.5140 c         1 MOL      0.370453
    151 O21        -4.9580   -2.4880    3.5200 o         1 MOL     -0.559924
    152 C52        -2.5590   -1.6720    1.1820 c3        1 MOL     -0.147995
    153 C53        -1.6900   -2.4500    0.1870 c3        1 MOL      0.416202
    154 C54        -0.5150   -1.5940   -0.2300 c         1 MOL      0.521153
    155 O22        -0.1810   -0.4840    0.3120 o         1 MOL     -0.630839
    156 O23         0.1440   -2.0320   -1.2020 o         1 MOL     -0.630839
    157 H67        -4.4600   -1.3050   -0.6260 hn        1 MOL      0.213183
    158 H68        -3.8990   -3.3730    1.3850 h1        1 MOL      0.116785
    159 H69        -2.0730   -1.7430    2.1490 hc        1 MOL      0.091838
    160 H70        -2.7380   -0.6650    0.8130 hc        1 MOL      0.091838
    161 H71        -2.2670   -2.7420   -0.6910 hc        1 MOL     -0.102432
    162 H72        -1.3000   -3.4090    0.5210 hc        1 MOL     -0.102432
    163 N14        -5.3000   -0.6110    2.5890 n         1 MOL      0.161172
    164 C55        -5.9640   -0.0810    3.8050 c3        1 MOL     -0.161991
    165 H73        -7.0300   -0.3080    3.7650 h1        1 MOL      0.059108
    166 H74        -5.5270   -0.5450    4.6890 h1        1 MOL      0.059108
    167 H75        -5.8250    0.9990    3.8540 h1        1 MOL      0.059108
    168 H76        -5.1080    0.0530    1.8550 hn        1 MOL     -0.076315
    169 Ca1         1.8130    0.2860   -1.2110 Ca        1 MOL      1.801004
    170 O24         2.7910    2.5320   -2.3350 oh        1 MOL     -1.008809
    171 H77         2.8930    2.7720   -3.2570 ho        1 MOL      0.458883
    172 H78         2.9860    3.3350   -1.8550 ho        1 MOL      0.458883
@<TRIPOS>BOND
     1    1    2 1   
     2    1    4 1   
     3    1    5 1   
     4    1    6 1   
     5    2    3 2   
     6    2    7 1   
     7    7    8 1   
     8    7   15 1   
     9    8    9 1   
    10    8   11 1   
    11    8   16 1   
    12    9   10 2   
    13    9   19 1   
    14   11   12 1   
    15   11   17 1   
    16   11   18 1   
    17   12   13 1   
    18   12   14 1   
    19   19   20 1   
    20   19   24 1   
    21   20   21 1   
    22   20   23 1   
    23   20   25 1   
    24   21   22 2   
    25   21   29 1   
    26   23   26 1   
    27   23   27 1   
    28   23   28 1   
    29   29   30 1   
    30   29   37 1   
    31   30   31 1   
    32   30   33 1   
    33   30   38 1   
    34   31   32 2   
    35   31   41 1   
    36   33   34 1   
    37   33   39 1   
    38   33   40 1   
    39   34   35 1   
    40   34   36 1   
    41   41   42 1   
    42   41   45 1   
    43   42   43 1   
    44   42   46 1   
    45   42   47 1   
    46   43   44 2   
    47   43   48 1   
    48   48   49 1   
    49   48   56 1   
    50   49   50 1   
    51   49   52 1   
    52   49   57 1   
    53   50   51 2   
    54   50   62 1   
    55   52   53 1   
    56   52   58 1   
    57   52   59 1   
    58   53   54 1   
    59   53   55 2   
    60   54   60 1   
    61   54   61 1   
    62   62   63 1   
    63   62   66 1   
    64   63   64 1   
    65   63   67 1   
    66   63   68 1   
    67   64   65 2   
    68   64   69 1   
    69   69   70 1   
    70   69   76 1   
    71   70   71 1   
    72   70   73 1   
    73   70   77 1   
    74   71   72 2   
    75   71   83 1   
    76   73   74 1   
    77   73   75 1   
    78   73   78 1   
    79   74   80 1   
    80   74   81 1   
    81   74   82 1   
    82   75   79 1   
    83   83   84 1   
    84   83   91 1   
    85   84   85 1   
    86   84   87 1   
    87   84   92 1   
    88   85   86 2   
    89   85  102 1   
    90   87   88 1   
    91   87   89 1   
    92   87   93 1   
    93   88   90 1   
    94   88   94 1   
    95   88   95 1   
    96   89   96 1   
    97   89   97 1   
    98   89   98 1   
    99   90   99 1   
   100   90  100 1   
   101   90  101 1   
   102  102  103 1   
   103  102  110 1   
   104  103  104 1   
   105  103  106 1   
   106  103  111 1   
   107  104  105 2   
   108  104  114 1   
   109  106  107 1   
   110  106  112 1   
   111  106  113 1   
   112  107  108 1   
   113  107  109 1   
   114  114  115 1   
   115  114  125 1   
   116  115  116 1   
   117  115  118 1   
   118  115  126 1   
   119  116  117 2   
   120  116  134 1   
   121  118  119 1   
   122  118  127 1   
   123  118  128 1   
   124  119  120 ar  
   125  119  121 ar  
   126  120  122 ar  
   127  120  129 1   
   128  121  123 ar  
   129  121  130 1   
   130  122  124 ar  
   131  122  131 1   
   132  123  124 ar  
   133  123  132 1   
   134  124  133 1   
   135  134  135 1   
   136  134  140 1   
   137  135  136 1   
   138  135  138 1   
   139  135  141 1   
   140  136  137 2   
   141  136  148 1   
   142  138  139 1   
   143  138  142 1   
   144  138  143 1   
   145  139  140 1   
   146  139  144 1   
   147  139  145 1   
   148  140  146 1   
   149  140  147 1   
   150  148  149 1   
   151  148  157 1   
   152  149  150 1   
   153  149  152 1   
   154  149  158 1   
   155  150  151 2   
   156  150  163 1   
   157  152  153 1   
   158  152  159 1   
   159  152  160 1   
   160  153  154 1   
   161  153  161 1   
   162  153  162 1   
   163  154  155 1   
   164  154  156 1   
   165  163  164 1   
   166  163  168 1   
   167  164  165 1   
   168  164  166 1   
   169  164  167 1   
   170  170  171 1   
   171  170  172 1   
@<TRIPOS>SUBSTRUCTURE
     1 MOL         1 TEMP              0 ****  ****    0 ROOT
