@<TRIPOS>MOLECULE
MOL
  186   183     1     0     0
SMALL
resp


@<TRIPOS>ATOM
      1 C1         -0.6430   -1.9860   -6.1790 c3        1 MOL     -0.374620
      2 C2         -0.9600   -1.7620   -4.6950 c         1 MOL      0.755871
      3 O1         -0.1570   -2.0880   -3.8620 o         1 MOL     -0.565023
      4 H1         -1.0910   -1.1880   -6.7710 hc        1 MOL      0.087755
      5 H2          0.4380   -1.9830   -6.3250 hc        1 MOL      0.087755
      6 H3         -1.0500   -2.9450   -6.4980 hc        1 MOL      0.087755
      7 N1         -2.1590   -1.2890   -4.3170 n         1 MOL     -0.639868
      8 C3         -2.6630   -1.3190   -2.8750 c3        1 MOL      0.325462
      9 C4         -3.0630   -2.7360   -2.5250 c         1 MOL      0.284965
     10 O2         -4.1120   -3.2560   -2.9740 o         1 MOL     -0.544003
     11 C5         -3.7970   -0.2890   -2.7980 c3        1 MOL     -0.382960
     12 C6         -4.5240   -0.4200   -1.4670 c         1 MOL      0.727867
     13 O3         -5.7500   -0.1730   -1.5150 o         1 MOL     -0.589104
     14 O4         -3.9290   -0.8960   -0.4550 o         1 MOL     -0.589104
     15 H4         -2.8070   -0.8480   -4.9650 hn        1 MOL      0.316217
     16 H5         -1.8910   -0.9810   -2.1810 h1        1 MOL      0.009135
     17 H6         -4.4640   -0.5790   -3.6030 hc        1 MOL      0.076506
     18 H7         -3.5060    0.7490   -2.9700 hc        1 MOL      0.076506
     19 N2         -2.4040   -3.3900   -1.5900 n         1 MOL     -0.016604
     20 C7         -2.5950   -4.8030   -1.3570 c3        1 MOL     -0.028706
     21 C8         -3.5760   -5.0550   -0.2050 c         1 MOL      0.358656
     22 O5         -4.2750   -6.1140   -0.2040 o         1 MOL     -0.558772
     23 C9         -1.2160   -5.4480   -1.1020 c3        1 MOL      0.149716
     24 C10        -0.4130   -5.4990   -2.4040 c3        1 MOL      0.055770
     25 C11        -1.5340   -6.9060   -0.7350 c3        1 MOL     -0.102453
     26 C12         1.0690   -5.6140   -2.0980 c3        1 MOL     -0.313851
     27 H8         -1.6710   -2.9570   -1.0480 hn        1 MOL      0.141627
     28 H9         -3.0340   -5.2100   -2.2670 h1        1 MOL      0.070880
     29 H10        -0.7090   -4.9420   -0.2860 hc        1 MOL      0.037991
     30 H11        -0.6380   -4.5530   -2.8830 hc        1 MOL     -0.001874
     31 H12        -0.7940   -6.2570   -3.0950 hc        1 MOL     -0.001874
     32 H13        -0.6040   -7.4740   -0.6830 hc        1 MOL      0.005297
     33 H14        -1.8390   -6.9070    0.3140 hc        1 MOL      0.005297
     34 H15        -2.2360   -7.3900   -1.4070 hc        1 MOL      0.005297
     35 H16         1.3300   -6.2600   -1.2550 hc        1 MOL      0.072423
     36 H17         1.6020   -5.9160   -3.0000 hc        1 MOL      0.072423
     37 H18         1.4010   -4.6340   -1.7280 hc        1 MOL      0.072423
     38 N3         -3.7470   -4.1720    0.8130 n         1 MOL     -0.295420
     39 C13        -4.7230   -4.3490    1.9500 c3        1 MOL      0.188359
     40 C14        -6.0130   -3.5350    1.7360 c         1 MOL      0.370289
     41 O6         -7.0210   -3.8030    2.4280 o         1 MOL     -0.576094
     42 C15        -4.0680   -3.9110    3.3030 c3        1 MOL     -0.310062
     43 C16        -3.2950   -2.6310    3.3220 c         1 MOL      0.796398
     44 O7         -2.7130   -2.2840    4.3590 o         1 MOL     -0.708512
     45 O8         -3.3320   -1.7970    2.4070 o         1 MOL     -0.708512
     46 H19        -3.1520   -3.3640    0.7640 hn        1 MOL      0.155094
     47 H20        -5.0880   -5.3750    1.9630 h1        1 MOL      0.054909
     48 H21        -3.4520   -4.7420    3.6440 hc        1 MOL      0.070317
     49 H22        -4.8820   -3.8950    4.0320 hc        1 MOL      0.070317
     50 N4         -6.0670   -2.6370    0.7790 n         1 MOL     -0.053142
     51 C17        -7.3920   -2.1550    0.3920 c3        1 MOL     -0.301820
     52 C18        -7.7400   -0.8070    1.0220 c         1 MOL      0.659230
     53 O9         -8.8860   -0.4730    1.3390 o         1 MOL     -0.633821
     54 H23        -5.2380   -2.3210    0.3020 hn        1 MOL      0.199207
     55 H24        -8.1860   -2.8370    0.7010 h1        1 MOL      0.117502
     56 H25        -7.2560   -2.0470   -0.6750 h1        1 MOL      0.117502
     57 N5         -6.7230    0.0620    1.3130 n         1 MOL     -0.173245
     58 C19        -6.9750    1.4050    1.8600 c3        1 MOL     -0.043342
     59 C20        -7.0950    2.5150    0.7890 c         1 MOL      0.439576
     60 O10        -7.3850    3.6160    1.1360 o         1 MOL     -0.536778
     61 C21        -5.9330    1.6230    2.9140 c3        1 MOL     -0.270771
     62 C22        -4.4670    1.4960    2.4980 c         1 MOL      0.792302
     63 O11        -4.1930    1.8910    1.3140 o         1 MOL     -0.700068
     64 O12        -3.5770    1.1590    3.2840 o         1 MOL     -0.700068
     65 H26        -5.8770   -0.2350    0.8490 hn        1 MOL     -0.057857
     66 H27        -7.8740    1.2830    2.4700 h1        1 MOL      0.131732
     67 H28        -5.9860    0.8760    3.7080 hc        1 MOL      0.071712
     68 H29        -6.0560    2.6190    3.3570 hc        1 MOL      0.071712
     69 N6         -6.9580    2.1930   -0.5040 n         1 MOL     -0.207740
     70 C23        -6.9000    3.2020   -1.5780 c3        1 MOL     -0.178008
     71 C24        -5.6010    3.9570   -1.7400 c         1 MOL      0.592261
     72 O13        -5.4970    4.9130   -2.5130 o         1 MOL     -0.617297
     73 H30        -6.6560    1.2560   -0.6930 hn        1 MOL      0.164211
     74 H31        -7.6790    3.9540   -1.4510 h1        1 MOL      0.091687
     75 H32        -7.0220    2.7580   -2.5680 h1        1 MOL      0.091687
     76 N7         -4.5320    3.5300   -1.0280 n         1 MOL     -0.337768
     77 C25        -3.1210    4.0380   -1.2140 c3        1 MOL     -0.118981
     78 C26        -1.9370    3.0060   -1.2370 c         1 MOL      0.665538
     79 O14        -2.0020    1.8710   -0.6820 o         1 MOL     -0.627391
     80 C27        -2.9910    5.1510   -0.1450 c3        1 MOL      0.098035
     81 C28        -3.6250    6.5170   -0.5210 c3        1 MOL     -0.297746
     82 C29        -3.5590    7.6620    0.5240 c         1 MOL      0.687096
     83 N8         -4.3280    7.6370    1.5750 n         1 MOL     -0.832647
     84 O15        -2.6530    8.4260    0.5010 o         1 MOL     -0.591480
     85 H33        -4.7340    2.8570   -0.3040 hn        1 MOL      0.258658
     86 H34        -3.1240    4.4290   -2.2290 h1        1 MOL      0.102120
     87 H35        -1.9040    5.2660   -0.0360 hc        1 MOL      0.039411
     88 H36        -3.2500    4.8360    0.8700 hc        1 MOL      0.039411
     89 H37        -4.6980    6.3500   -0.6380 hc        1 MOL      0.081871
     90 H38        -3.2380    6.9030   -1.4630 hc        1 MOL      0.081871
     91 H39        -5.0260    6.9030    1.6580 hn        1 MOL      0.375779
     92 H40        -4.0020    8.2330    2.3170 hn        1 MOL      0.375779
     93 N9         -0.8130    3.3940   -1.8990 n         1 MOL     -0.518067
     94 C30         0.3960    2.5830   -2.0340 c3        1 MOL      0.209920
     95 C31         1.4600    3.1700   -1.0750 c         1 MOL      0.377879
     96 O16         1.8190    4.3080   -1.2070 o         1 MOL     -0.552444
     97 C32         0.9070    2.3300   -3.5000 c3        1 MOL      0.140186
     98 C33         1.6860    1.0630   -3.6690 c3        1 MOL     -0.244737
     99 C34        -0.2970    2.3840   -4.5150 c3        1 MOL     -0.244737
    100 H41        -0.9570    4.1300   -2.5760 hn        1 MOL      0.282072
    101 H42         0.3700    1.5840   -1.5990 h1        1 MOL      0.069858
    102 H43         1.5590    3.1860   -3.6570 hc        1 MOL     -0.014386
    103 H44         2.6590    1.1620   -3.1860 hc        1 MOL      0.049866
    104 H45         1.0230    0.2240   -3.4330 hc        1 MOL      0.049866
    105 H46         1.9680    1.0190   -4.7170 hc        1 MOL      0.049866
    106 H47        -0.9430    1.5250   -4.3650 hc        1 MOL      0.049866
    107 H48        -0.9470    3.2500   -4.3720 hc        1 MOL      0.049866
    108 H49        -0.0390    2.4190   -5.5750 hc        1 MOL      0.049866
    109 N10         1.8970    2.3930   -0.0240 n         1 MOL     -0.140590
    110 C35         3.0740    2.6730    0.7630 c3        1 MOL      0.145871
    111 C36         4.3620    2.0300    0.2430 c         1 MOL      0.367812
    112 O17         4.2770    1.2430   -0.6970 o         1 MOL     -0.382482
    113 C37         2.7720    2.5650    2.2640 c3        1 MOL     -0.508188
    114 C38         3.2890    1.1920    2.7370 c         1 MOL      0.601742
    115 N11         2.5420    0.1080    2.4010 n         1 MOL     -0.651241
    116 O18         4.4030    1.0870    3.3100 o         1 MOL     -0.488091
    117 H50         1.4860    1.4820    0.1070 hn        1 MOL      0.148145
    118 H51         3.2860    3.7280    0.5740 h1        1 MOL      0.065467
    119 H52         1.7060    2.6110    2.4670 hc        1 MOL      0.163578
    120 H53         3.3040    3.3570    2.7780 hc        1 MOL      0.163578
    121 H54         1.7190    0.3130    1.8580 hn        1 MOL      0.363888
    122 H55         2.6870   -0.8570    2.6370 hn        1 MOL      0.363888
    123 N12         5.5450    2.3820    0.7890 n         1 MOL     -0.515965
    124 C39         6.7240    1.7050    0.3320 c3        1 MOL      0.186755
    125 C40         6.7300    0.1480    0.4180 c         1 MOL      0.617301
    126 O19         7.2960   -0.5730   -0.3770 o         1 MOL     -0.552449
    127 C41         7.8610    2.2520    1.1230 c3        1 MOL     -0.198497
    128 C42         9.2070    1.9920    0.4640 ca        1 MOL      0.108864
    129 C43         9.6340    2.7590   -0.6320 ca        1 MOL     -0.245312
    130 C44        10.0150    0.9530    0.8700 ca        1 MOL     -0.245312
    131 C45        10.7510    2.4560   -1.4280 ca        1 MOL     -0.142224
    132 C46        11.1410    0.6340    0.0870 ca        1 MOL     -0.142224
    133 C47        11.5150    1.3610   -1.0350 ca        1 MOL      0.212780
    134 O20        12.5750    0.9740   -1.8160 oh        1 MOL     -0.488039
    135 H56         5.6730    3.1110    1.4650 hn        1 MOL      0.311759
    136 H57         6.8360    1.9370   -0.7260 h1        1 MOL      0.050505
    137 H58         7.8540    1.8550    2.1310 hc        1 MOL      0.076972
    138 H59         7.7910    3.3300    1.2250 hc        1 MOL      0.076972
    139 H60         9.0560    3.6510   -0.8460 ha        1 MOL      0.144566
    140 H61         9.8160    0.3490    1.7440 ha        1 MOL      0.144566
    141 H62        10.9980    3.0140   -2.3120 ha        1 MOL      0.119298
    142 H63        11.7880   -0.1680    0.4410 ha        1 MOL      0.119298
    143 H64        12.9160    0.1470   -1.4680 ho        1 MOL      0.356956
    144 N13         6.0510   -0.4490    1.4300 n         1 MOL     -0.333288
    145 C48         6.0830   -1.8960    1.5590 c3        1 MOL      0.123708
    146 C49         5.3100   -2.6090    0.4280 c         1 MOL      0.279437
    147 O21         5.6190   -3.7320    0.0520 o         1 MOL     -0.505278
    148 C50         5.3940   -2.2150    2.8650 c3        1 MOL     -0.153848
    149 C51         6.2900   -1.7660    4.0570 c3        1 MOL     -0.112494
    150 C52         5.5200   -1.5070    5.3520 c         1 MOL      0.705676
    151 O22         4.6200   -2.3260    5.7000 o         1 MOL     -0.741068
    152 O23         5.8260   -0.4660    5.9870 o         1 MOL     -0.741068
    153 H65         5.5400    0.1850    2.0230 hn        1 MOL      0.187599
    154 H66         7.1360   -2.1800    1.5520 h1        1 MOL      0.062982
    155 H67         5.2720   -3.3070    2.8720 hc        1 MOL      0.049819
    156 H68         4.4240   -1.7260    2.9480 hc        1 MOL      0.049819
    157 H69         6.7990   -0.8500    3.7730 hc        1 MOL     -0.000690
    158 H70         7.0810   -2.4620    4.3340 hc        1 MOL     -0.000690
    159 N14         4.3420   -1.8950   -0.2000 n         1 MOL      0.040160
    160 C53         3.6340   -2.4490   -1.3180 c3        1 MOL     -0.064054
    161 C54         4.2600   -2.0530   -2.5990 c         1 MOL      0.412429
    162 O24         4.3010   -2.7250   -3.5930 o         1 MOL     -0.560812
    163 C55         2.2050   -1.8640   -1.2390 c3        1 MOL      0.075797
    164 C56         1.4810   -2.1100    0.0480 c3        1 MOL     -0.053643
    165 C57         0.2460   -1.2410    0.1930 c         1 MOL      0.765921
    166 O25        -0.8560   -1.7730    0.1500 o         1 MOL     -0.771793
    167 O26         0.3520   -0.0150    0.3860 o         1 MOL     -0.771793
    168 H71         4.1150   -0.9380    0.0280 hn        1 MOL      0.053258
    169 H72         3.5080   -3.5270   -1.2400 h1        1 MOL      0.070267
    170 H73         1.5410   -2.2460   -2.0170 hc        1 MOL      0.021636
    171 H74         2.3110   -0.7880   -1.3870 hc        1 MOL      0.021636
    172 H75         2.1090   -1.9550    0.9320 hc        1 MOL     -0.027062
    173 H76         1.2020   -3.1670    0.0500 hc        1 MOL     -0.027062
    174 N15         4.9550   -0.9140   -2.5560 n         1 MOL      0.038427
    175 C58         5.7150   -0.3930   -3.7000 c3        1 MOL     -0.228836
    176 H77         5.1050    0.3300   -4.2420 h1        1 MOL      0.078592
    177 H78         6.6230    0.0950   -3.3430 h1        1 MOL      0.078592
    178 H79         5.9810   -1.2150   -4.3650 h1        1 MOL      0.078592
    179 H80         5.0490   -0.4670   -1.6560 hn        1 MOL     -0.028973
    180 Ca1        -2.1500    0.1340    1.2160 Ca        1 MOL      1.719215
    181 O27        -1.1230    2.3420    2.3740 oh        1 MOL     -0.881015
    182 H81        -0.3170    2.4700    2.8730 ho        1 MOL      0.402113
    183 H82        -1.7900    2.1710    3.0290 ho        1 MOL      0.402113
    184 O28        -0.4930   -0.8410    3.1670 oh        1 MOL     -0.881015
    185 H83        -1.1240   -1.3910    3.6170 ho        1 MOL      0.402113
    186 H84         0.3630   -1.1320    3.5020 ho        1 MOL      0.402113
@<TRIPOS>BOND
     1    1    2 1   
     2    1    4 1   
     3    1    5 1   
     4    1    6 1   
     5    2    3 2   
     6    2    7 1   
     7    7    8 1   
     8    7   15 1   
     9    8    9 1   
    10    8   11 1   
    11    8   16 1   
    12    9   10 2   
    13    9   19 1   
    14   11   12 1   
    15   11   17 1   
    16   11   18 1   
    17   12   13 1   
    18   12   14 1   
    19   19   20 1   
    20   19   27 1   
    21   20   21 1   
    22   20   23 1   
    23   20   28 1   
    24   21   22 2   
    25   21   38 1   
    26   23   24 1   
    27   23   25 1   
    28   23   29 1   
    29   24   26 1   
    30   24   30 1   
    31   24   31 1   
    32   25   32 1   
    33   25   33 1   
    34   25   34 1   
    35   26   35 1   
    36   26   36 1   
    37   26   37 1   
    38   38   39 1   
    39   38   46 1   
    40   39   40 1   
    41   39   42 1   
    42   39   47 1   
    43   40   41 2   
    44   40   50 1   
    45   42   43 1   
    46   42   48 1   
    47   42   49 1   
    48   43   44 1   
    49   43   45 1   
    50   50   51 1   
    51   50   54 1   
    52   51   52 1   
    53   51   55 1   
    54   51   56 1   
    55   52   53 2   
    56   52   57 1   
    57   57   58 1   
    58   57   65 1   
    59   58   59 1   
    60   58   61 1   
    61   58   66 1   
    62   59   60 2   
    63   59   69 1   
    64   61   62 1   
    65   61   67 1   
    66   61   68 1   
    67   62   63 1   
    68   62   64 1   
    69   69   70 1   
    70   69   73 1   
    71   70   71 1   
    72   70   74 1   
    73   70   75 1   
    74   71   72 2   
    75   71   76 1   
    76   76   77 1   
    77   76   85 1   
    78   77   78 1   
    79   77   80 1   
    80   77   86 1   
    81   78   79 2   
    82   78   93 1   
    83   80   81 1   
    84   80   87 1   
    85   80   88 1   
    86   81   82 1   
    87   81   89 1   
    88   81   90 1   
    89   82   83 1   
    90   82   84 2   
    91   83   91 1   
    92   83   92 1   
    93   93   94 1   
    94   93  100 1   
    95   94   95 1   
    96   94   97 1   
    97   94  101 1   
    98   95   96 2   
    99   95  109 1   
   100   97   98 1   
   101   97   99 1   
   102   97  102 1   
   103   98  103 1   
   104   98  104 1   
   105   98  105 1   
   106   99  106 1   
   107   99  107 1   
   108   99  108 1   
   109  109  110 1   
   110  109  117 1   
   111  110  111 1   
   112  110  113 1   
   113  110  118 1   
   114  111  112 2   
   115  111  123 1   
   116  113  114 1   
   117  113  119 1   
   118  113  120 1   
   119  114  115 1   
   120  114  116 2   
   121  115  121 1   
   122  115  122 1   
   123  123  124 1   
   124  123  135 1   
   125  124  125 1   
   126  124  127 1   
   127  124  136 1   
   128  125  126 2   
   129  125  144 1   
   130  127  128 1   
   131  127  137 1   
   132  127  138 1   
   133  128  129 ar  
   134  128  130 ar  
   135  129  131 ar  
   136  129  139 1   
   137  130  132 ar  
   138  130  140 1   
   139  131  133 ar  
   140  131  141 1   
   141  132  133 ar  
   142  132  142 1   
   143  133  134 1   
   144  134  143 1   
   145  144  145 1   
   146  144  153 1   
   147  145  146 1   
   148  145  148 1   
   149  145  154 1   
   150  146  147 2   
   151  146  159 1   
   152  148  149 1   
   153  148  155 1   
   154  148  156 1   
   155  149  150 1   
   156  149  157 1   
   157  149  158 1   
   158  150  151 1   
   159  150  152 1   
   160  159  160 1   
   161  159  168 1   
   162  160  161 1   
   163  160  163 1   
   164  160  169 1   
   165  161  162 2   
   166  161  174 1   
   167  163  164 1   
   168  163  170 1   
   169  163  171 1   
   170  164  165 1   
   171  164  172 1   
   172  164  173 1   
   173  165  166 1   
   174  165  167 1   
   175  174  175 1   
   176  174  179 1   
   177  175  176 1   
   178  175  177 1   
   179  175  178 1   
   180  181  182 1   
   181  181  183 1   
   182  184  185 1   
   183  184  186 1   
@<TRIPOS>SUBSTRUCTURE
     1 MOL         1 TEMP              0 ****  ****    0 ROOT
