@<TRIPOS>MOLECULE
MOL
  183   181     1     0     0
SMALL
resp


@<TRIPOS>ATOM
      1 C1         -1.0120    1.7410    5.9940 c3        1 MOL     -0.048888
      2 C2         -1.2830    1.6910    4.4920 c         1 MOL      0.681502
      3 O1         -0.5390    2.3740    3.7880 o         1 MOL     -0.585388
      4 H1         -1.5740    2.5640    6.4370 hc        1 MOL     -0.002699
      5 H2         -1.3230    0.8020    6.4520 hc        1 MOL     -0.002699
      6 H3          0.0530    1.8950    6.1670 hc        1 MOL     -0.002699
      7 N1         -2.2980    1.0550    4.0190 n         1 MOL     -0.457172
      8 C3         -2.9590    1.2420    2.7330 c3        1 MOL      0.114271
      9 C4         -3.4450    2.6310    2.5250 c         1 MOL      0.517839
     10 O2         -4.4530    3.0880    3.0640 o         1 MOL     -0.544236
     11 C5         -4.0780    0.1970    2.7350 c3        1 MOL     -0.462564
     12 C6         -4.7130    0.0770    1.3520 c         1 MOL      0.718735
     13 O3         -5.9220   -0.3340    1.2860 o         1 MOL     -0.574147
     14 O4         -4.0550    0.5690    0.3710 o         1 MOL     -0.574147
     15 H4         -2.8940    0.4560    4.5710 hn        1 MOL      0.270170
     16 H5         -2.2120    1.0300    1.9640 h1        1 MOL      0.042001
     17 H6         -4.8830    0.3830    3.4570 hc        1 MOL      0.111807
     18 H7         -3.6510   -0.7760    2.9600 hc        1 MOL      0.111807
     19 N2         -2.7060    3.4060    1.7060 n         1 MOL     -0.289447
     20 C7         -3.1360    4.7690    1.2860 c3        1 MOL     -0.462884
     21 C8         -4.1950    4.6970    0.2120 c         1 MOL      0.721536
     22 O5         -5.0150    5.6880    0.0280 o         1 MOL     -0.589951
     23 C9         -1.9200    5.5740    0.8460 c3        1 MOL      0.478447
     24 C10        -0.8660    5.5960    2.0510 c3        1 MOL      0.036314
     25 C11        -2.1810    6.9750    0.2860 c3        1 MOL     -0.333361
     26 C12         0.5530    6.0800    1.6770 c3        1 MOL     -0.000403
     27 H8         -1.7920    3.1280    1.3870 hn        1 MOL      0.200218
     28 H9         -3.5700    5.3190    2.1250 h1        1 MOL      0.134267
     29 H10        -1.4680    5.0360    0.0120 hc        1 MOL     -0.022063
     30 H11        -0.5980    4.6410    2.4980 hc        1 MOL     -0.018608
     31 H12        -1.2220    6.2810    2.8260 hc        1 MOL     -0.018608
     32 H13        -2.3970    7.6680    1.0950 hc        1 MOL      0.059090
     33 H14        -1.2690    7.3050   -0.2070 hc        1 MOL      0.059090
     34 H15        -2.9410    7.0190   -0.5010 hc        1 MOL      0.059090
     35 H16         0.4270    7.0320    1.1620 hc        1 MOL     -0.020511
     36 H17         1.0860    6.1890    2.6190 hc        1 MOL     -0.020511
     37 H18         1.0420    5.4480    0.9310 hc        1 MOL     -0.020511
     38 N3         -4.3630    3.5030   -0.4680 n         1 MOL     -0.522907
     39 C13        -5.1690    3.4030   -1.7600 c3        1 MOL     -0.145347
     40 C14        -6.6110    3.0700   -1.4650 c         1 MOL      0.472761
     41 O6         -7.5870    3.4640   -2.1140 o         1 MOL     -0.563601
     42 C15        -4.5280    2.3180   -2.7100 c3        1 MOL      0.073033
     43 C16        -3.0450    2.5710   -2.8700 c         1 MOL      0.568063
     44 O7         -2.6760    3.7790   -3.0710 o         1 MOL     -0.654105
     45 O8         -2.2760    1.5800   -2.9120 o         1 MOL     -0.654105
     46 H19        -3.7570    2.7680   -0.1450 hn        1 MOL      0.383960
     47 H20        -5.0720    4.3210   -2.3440 h1        1 MOL      0.125097
     48 H21        -4.9930    2.3130   -3.7000 hc        1 MOL     -0.008867
     49 H22        -4.6280    1.3120   -2.3000 hc        1 MOL     -0.008867
     50 N4         -6.8380    2.1180   -0.5860 n         1 MOL     -0.115830
     51 C17        -8.1730    1.5320   -0.3680 c3        1 MOL     -0.089292
     52 C18        -8.3620    0.2400   -1.1340 c         1 MOL      0.505083
     53 O9         -9.3820   -0.0300   -1.8290 o         1 MOL     -0.596535
     54 H23        -6.0360    1.7040   -0.1270 hn        1 MOL      0.118547
     55 H24        -9.0050    2.2030   -0.5990 h1        1 MOL      0.053481
     56 H25        -8.1350    1.2460    0.6900 h1        1 MOL      0.053481
     57 N5         -7.3180   -0.6070   -1.1760 n         1 MOL     -0.267606
     58 C19        -7.3470   -2.0200   -1.7810 c3        1 MOL      0.014791
     59 C20        -7.2560   -3.2410   -0.8330 c         1 MOL      0.367372
     60 O10        -7.5040   -4.4020   -1.2770 o         1 MOL     -0.568406
     61 C21        -6.2950   -2.0710   -2.8850 c3        1 MOL     -0.185239
     62 C22        -4.8520   -1.8850   -2.4120 c         1 MOL      0.754398
     63 O11        -3.9210   -1.6180   -3.1580 o         1 MOL     -0.803460
     64 O12        -4.6570   -1.8050   -1.2080 o         1 MOL     -0.803460
     65 H26        -6.5740   -0.3870   -0.5340 hn        1 MOL      0.217825
     66 H27        -8.3470   -2.0340   -2.1960 h1        1 MOL      0.080907
     67 H28        -6.5360   -1.3290   -3.6480 hc        1 MOL      0.067214
     68 H29        -6.4550   -2.9950   -3.4290 hc        1 MOL      0.067214
     69 N6         -6.8970   -3.0280    0.3950 n         1 MOL     -0.072880
     70 C23        -6.8200   -4.0190    1.4380 c3        1 MOL     -0.114998
     71 C24        -5.4110   -4.7090    1.4500 c         1 MOL      0.506606
     72 O13        -5.3000   -5.8020    2.0170 o         1 MOL     -0.590645
     73 H30        -6.6170   -2.0660    0.5310 hn        1 MOL      0.056237
     74 H31        -7.6260   -4.7280    1.2840 h1        1 MOL      0.076602
     75 H32        -6.8940   -3.6610    2.4610 h1        1 MOL      0.076602
     76 N7         -4.3910   -4.0820    0.8960 n         1 MOL     -0.206516
     77 C25        -2.9990   -4.5670    0.9760 c3        1 MOL     -0.039127
     78 C26        -2.0480   -3.3330    1.1240 c         1 MOL      0.621084
     79 O14        -2.3790   -2.1770    0.8360 o         1 MOL     -0.714719
     80 C27        -2.6100   -5.4620   -0.2190 c3        1 MOL      0.027096
     81 C28        -2.8750   -4.8260   -1.6300 c3        1 MOL     -0.256718
     82 C29        -1.6750   -4.0810   -2.1820 c         1 MOL      0.595554
     83 N8         -0.9040   -4.5780   -3.0920 n         1 MOL     -0.738429
     84 O15        -1.3680   -2.9910   -1.8630 o         1 MOL     -0.458134
     85 H33        -4.5070   -3.1580    0.4860 hn        1 MOL      0.278949
     86 H34        -2.8100   -5.1270    1.8880 h1        1 MOL      0.053000
     87 H35        -3.0810   -6.4400   -0.1520 hc        1 MOL      0.015151
     88 H36        -1.5460   -5.6850   -0.2660 hc        1 MOL      0.015151
     89 H37        -3.7860   -4.2390   -1.6300 hc        1 MOL      0.094568
     90 H38        -2.9500   -5.6480   -2.3360 hc        1 MOL      0.094568
     91 H39        -1.0870   -5.5030   -3.4560 hn        1 MOL      0.334819
     92 H40        -0.1170   -4.0420   -3.4150 hn        1 MOL      0.334819
     93 N9         -0.8050   -3.6850    1.5530 n         1 MOL     -0.538027
     94 C30         0.2940   -2.7340    1.8340 c3        1 MOL     -0.022356
     95 C31         1.6450   -3.1220    1.1900 c         1 MOL      0.546107
     96 O16         2.2340   -4.1200    1.5420 o         1 MOL     -0.574888
     97 C32         0.4470   -2.7130    3.3210 c3        1 MOL      0.282145
     98 C33         1.6250   -1.8740    3.8900 c3        1 MOL     -0.281382
     99 C34        -0.8460   -2.0340    4.0170 c3        1 MOL     -0.281382
    100 H41        -0.6860   -4.6200    1.9030 hn        1 MOL      0.310771
    101 H42        -0.1140   -1.7610    1.5440 h1        1 MOL      0.178856
    102 H43         0.5040   -3.7360    3.6840 hc        1 MOL     -0.041228
    103 H44         2.5430   -2.2100    3.4030 hc        1 MOL      0.053659
    104 H45         1.4350   -0.8170    3.7010 hc        1 MOL      0.053659
    105 H46         1.6960   -2.1390    4.9390 hc        1 MOL      0.053659
    106 H47        -0.6870   -1.9180    5.0910 hc        1 MOL      0.053659
    107 H48        -1.1050   -1.0730    3.5780 hc        1 MOL      0.053659
    108 H49        -1.7080   -2.6960    3.9920 hc        1 MOL      0.053659
    109 N10         2.0580   -2.3730    0.1490 n         1 MOL     -0.290068
    110 C35         3.2560   -2.7910   -0.6260 c3        1 MOL     -0.005497
    111 C36         4.5700   -2.2460    0.0080 c         1 MOL      0.489402
    112 O17         4.4310   -1.4300    0.8990 o         1 MOL     -0.314214
    113 C37         2.9660   -2.4600   -2.1350 c3        1 MOL     -0.197210
    114 C38         3.4040   -1.0770   -2.4750 c         1 MOL      0.355667
    115 N11         2.6370   -0.0440   -2.1000 n         1 MOL     -0.379228
    116 O18         4.4320   -0.9120   -3.1120 o         1 MOL     -0.524609
    117 H50         1.5890   -1.5110   -0.0840 hn        1 MOL      0.110671
    118 H51         3.4420   -3.8670   -0.7210 h1        1 MOL      0.066546
    119 H52         1.8860   -2.4760   -2.2680 hc        1 MOL      0.090017
    120 H53         3.4560   -3.1980   -2.7740 hc        1 MOL      0.090017
    121 H54         1.7110   -0.2780   -1.7920 hn        1 MOL      0.322369
    122 H55         2.7840    0.7510   -2.7070 hn        1 MOL      0.322369
    123 N12         5.7050   -2.5490   -0.5960 n         1 MOL     -0.669570
    124 C39         6.9930   -1.8820   -0.4360 c3        1 MOL      0.374315
    125 C40         7.0370   -0.3940   -0.3980 c         1 MOL      0.790193
    126 O19         7.5690    0.1570    0.5670 o         1 MOL     -0.544760
    127 C41         8.1440   -2.5110   -1.2150 c3        1 MOL     -0.227189
    128 C42         9.5490   -2.1110   -0.7740 ca        1 MOL      0.180274
    129 C43         9.8860   -2.2930    0.5930 ca        1 MOL     -0.348694
    130 C44        10.4050   -1.4400   -1.6820 ca        1 MOL     -0.348694
    131 C45        11.1320   -1.7940    1.0920 ca        1 MOL     -0.076785
    132 C46        11.6440   -0.9440   -1.1710 ca        1 MOL     -0.076785
    133 C47        11.9650   -1.1860    0.1760 ca        1 MOL      0.168243
    134 O20        13.1530   -0.6770    0.6640 oh        1 MOL     -0.475000
    135 H56         5.5460   -3.2350   -1.3260 hn        1 MOL      0.313347
    136 H57         7.1820   -2.0810    0.6230 h1        1 MOL      0.010887
    137 H58         7.9610   -2.3430   -2.2810 hc        1 MOL      0.061962
    138 H59         8.1080   -3.5850   -1.0430 hc        1 MOL      0.061962
    139 H60         9.2060   -2.7550    1.2970 ha        1 MOL      0.179101
    140 H61        10.0770   -1.3310   -2.7020 ha        1 MOL      0.179101
    141 H62        11.4430   -1.8540    2.1200 ha        1 MOL      0.120715
    142 H63        12.3270   -0.4200   -1.8120 ha        1 MOL      0.120715
    143 H64        13.7140   -0.3760   -0.0570 ho        1 MOL      0.338273
    144 N13         6.5310    0.2680   -1.4180 n         1 MOL     -0.655450
    145 C48         6.3710    1.7080   -1.2120 c3        1 MOL      0.008784
    146 C49         5.5020    2.1440    0.0420 c         1 MOL      0.232052
    147 O21         5.8870    3.0040    0.8500 o         1 MOL     -0.499275
    148 C50         5.8330    2.2740   -2.4910 c3        1 MOL      0.249650
    149 C51         5.9280    3.7930   -2.6820 c3        1 MOL     -0.387112
    150 C52         5.3050    4.1360   -3.9960 c         1 MOL      0.768649
    151 O22         4.6800    3.2650   -4.6340 o         1 MOL     -0.754858
    152 O23         5.5230    5.2900   -4.4290 o         1 MOL     -0.754858
    153 H65         6.0090   -0.2260   -2.1260 hn        1 MOL      0.318879
    154 H66         7.3110    2.1960   -0.9620 h1        1 MOL      0.070683
    155 H67         4.7990    1.9890   -2.6470 hc        1 MOL     -0.015259
    156 H68         6.3370    1.6990   -3.2680 hc        1 MOL     -0.015259
    157 H69         6.9870    4.0330   -2.6780 hc        1 MOL      0.069758
    158 H70         5.4540    4.2810   -1.8270 hc        1 MOL      0.069758
    159 N14         4.3270    1.5560    0.3020 n         1 MOL      0.095322
    160 C53         3.4900    1.8930    1.4820 c3        1 MOL     -0.097261
    161 C54         4.2110    1.3760    2.7400 c         1 MOL      0.416806
    162 O24         3.9810    2.0250    3.7530 o         1 MOL     -0.557705
    163 C55         2.1120    1.2280    1.3590 c3        1 MOL      0.227114
    164 C56         1.2870    1.8470    0.3220 c3        1 MOL     -0.120758
    165 C57         0.0720    0.9750   -0.0600 c         1 MOL      0.706524
    166 O25        -1.0840    1.4480   -0.1530 o         1 MOL     -0.719045
    167 O26         0.2530   -0.2270   -0.4250 o         1 MOL     -0.719045
    168 H71         4.0580    0.8700   -0.3870 hn        1 MOL     -0.089185
    169 H72         3.4010    2.9720    1.5790 h1        1 MOL      0.121604
    170 H73         1.5170    1.2660    2.2660 hc        1 MOL     -0.030173
    171 H74         2.2480    0.1770    1.0530 hc        1 MOL     -0.030173
    172 H75         1.8850    1.9780   -0.5780 hc        1 MOL      0.019343
    173 H76         0.9790    2.8330    0.6480 hc        1 MOL      0.019343
    174 N15         5.2210    0.4830    2.7310 n         1 MOL      0.041698
    175 C58         6.0150    0.1190    3.9030 c3        1 MOL     -0.374793
    176 H77         5.4160    0.2580    4.8040 h1        1 MOL      0.117399
    177 H78         6.3180   -0.9250    3.8270 h1        1 MOL      0.117399
    178 H79         6.9000    0.7530    3.9540 h1        1 MOL      0.117399
    179 H80         5.3630   -0.1140    1.9220 hn        1 MOL     -0.038774
    180 Ca1        -2.3070   -0.5630   -1.3010 Ca        1 MOL      1.763513
    181 O27        -0.3750   -0.7510   -3.1380 oh        1 MOL     -0.867440
    182 H81         0.0210   -0.1400   -3.7670 ho        1 MOL      0.408703
    183 H82         0.0480   -1.5890   -3.3210 ho        1 MOL      0.408703
@<TRIPOS>BOND
     1    1    2 1   
     2    1    4 1   
     3    1    5 1   
     4    1    6 1   
     5    2    3 2   
     6    2    7 1   
     7    7    8 1   
     8    7   15 1   
     9    8    9 1   
    10    8   11 1   
    11    8   16 1   
    12    9   10 2   
    13    9   19 1   
    14   11   12 1   
    15   11   17 1   
    16   11   18 1   
    17   12   13 1   
    18   12   14 1   
    19   19   20 1   
    20   19   27 1   
    21   20   21 1   
    22   20   23 1   
    23   20   28 1   
    24   21   22 2   
    25   21   38 1   
    26   23   24 1   
    27   23   25 1   
    28   23   29 1   
    29   24   26 1   
    30   24   30 1   
    31   24   31 1   
    32   25   32 1   
    33   25   33 1   
    34   25   34 1   
    35   26   35 1   
    36   26   36 1   
    37   26   37 1   
    38   38   39 1   
    39   38   46 1   
    40   39   40 1   
    41   39   42 1   
    42   39   47 1   
    43   40   41 2   
    44   40   50 1   
    45   42   43 1   
    46   42   48 1   
    47   42   49 1   
    48   43   44 1   
    49   43   45 1   
    50   50   51 1   
    51   50   54 1   
    52   51   52 1   
    53   51   55 1   
    54   51   56 1   
    55   52   53 2   
    56   52   57 1   
    57   57   58 1   
    58   57   65 1   
    59   58   59 1   
    60   58   61 1   
    61   58   66 1   
    62   59   60 2   
    63   59   69 1   
    64   61   62 1   
    65   61   67 1   
    66   61   68 1   
    67   62   63 1   
    68   62   64 1   
    69   69   70 1   
    70   69   73 1   
    71   70   71 1   
    72   70   74 1   
    73   70   75 1   
    74   71   72 2   
    75   71   76 1   
    76   76   77 1   
    77   76   85 1   
    78   77   78 1   
    79   77   80 1   
    80   77   86 1   
    81   78   79 2   
    82   78   93 1   
    83   80   81 1   
    84   80   87 1   
    85   80   88 1   
    86   81   82 1   
    87   81   89 1   
    88   81   90 1   
    89   82   83 1   
    90   82   84 2   
    91   83   91 1   
    92   83   92 1   
    93   93   94 1   
    94   93  100 1   
    95   94   95 1   
    96   94   97 1   
    97   94  101 1   
    98   95   96 2   
    99   95  109 1   
   100   97   98 1   
   101   97   99 1   
   102   97  102 1   
   103   98  103 1   
   104   98  104 1   
   105   98  105 1   
   106   99  106 1   
   107   99  107 1   
   108   99  108 1   
   109  109  110 1   
   110  109  117 1   
   111  110  111 1   
   112  110  113 1   
   113  110  118 1   
   114  111  112 2   
   115  111  123 1   
   116  113  114 1   
   117  113  119 1   
   118  113  120 1   
   119  114  115 1   
   120  114  116 2   
   121  115  121 1   
   122  115  122 1   
   123  123  124 1   
   124  123  135 1   
   125  124  125 1   
   126  124  127 1   
   127  124  136 1   
   128  125  126 2   
   129  125  144 1   
   130  127  128 1   
   131  127  137 1   
   132  127  138 1   
   133  128  129 ar  
   134  128  130 ar  
   135  129  131 ar  
   136  129  139 1   
   137  130  132 ar  
   138  130  140 1   
   139  131  133 ar  
   140  131  141 1   
   141  132  133 ar  
   142  132  142 1   
   143  133  134 1   
   144  134  143 1   
   145  144  145 1   
   146  144  153 1   
   147  145  146 1   
   148  145  148 1   
   149  145  154 1   
   150  146  147 2   
   151  146  159 1   
   152  148  149 1   
   153  148  155 1   
   154  148  156 1   
   155  149  150 1   
   156  149  157 1   
   157  149  158 1   
   158  150  151 1   
   159  150  152 1   
   160  159  160 1   
   161  159  168 1   
   162  160  161 1   
   163  160  163 1   
   164  160  169 1   
   165  161  162 2   
   166  161  174 1   
   167  163  164 1   
   168  163  170 1   
   169  163  171 1   
   170  164  165 1   
   171  164  172 1   
   172  164  173 1   
   173  165  166 1   
   174  165  167 1   
   175  174  175 1   
   176  174  179 1   
   177  175  176 1   
   178  175  177 1   
   179  175  178 1   
   180  181  182 1   
   181  181  183 1   
@<TRIPOS>SUBSTRUCTURE
     1 MOL         1 TEMP              0 ****  ****    0 ROOT
