@<TRIPOS>MOLECULE
MOL
  189   185     1     0     0
SMALL
resp


@<TRIPOS>ATOM
      1 C1          1.3990   -3.2220    6.3560 c3        1 MOL     -0.609347
      2 C2          1.5210   -2.9700    4.8500 c         1 MOL      0.742880
      3 O1          1.2740   -1.8320    4.4390 o         1 MOL     -0.604370
      4 H1          0.7650   -2.4560    6.8010 hc        1 MOL      0.158228
      5 H2          0.9560   -4.2030    6.5260 hc        1 MOL      0.158228
      6 H3          2.3880   -3.1850    6.8120 hc        1 MOL      0.158228
      7 N1          1.7950   -3.9030    3.9910 n         1 MOL     -0.531263
      8 C3          2.2880   -3.6210    2.6050 c3        1 MOL      0.150358
      9 C4          2.0520   -4.8420    1.6580 c         1 MOL      0.374276
     10 O2          2.3480   -5.9910    2.0100 o         1 MOL     -0.529304
     11 C5          3.7740   -3.2090    2.6900 c3        1 MOL     -0.232206
     12 C6          4.3040   -2.9760    1.2750 c         1 MOL      0.743288
     13 O3          3.6540   -2.1690    0.5680 o         1 MOL     -0.677471
     14 O4          5.3480   -3.5320    0.8830 o         1 MOL     -0.677471
     15 H4          1.8580   -4.8420    4.3590 hn        1 MOL      0.293134
     16 H5          1.8520   -2.7400    2.1290 h1        1 MOL      0.044883
     17 H6          4.2780   -4.0970    3.0940 hc        1 MOL      0.037974
     18 H7          4.0070   -2.4640    3.4460 hc        1 MOL      0.037974
     19 N2          1.7500   -4.5690    0.3280 n         1 MOL     -0.047928
     20 C7          1.5960   -5.6310   -0.7130 c3        1 MOL     -0.130431
     21 C8          2.4390   -5.2740   -1.9850 c         1 MOL      0.402614
     22 O5          2.5280   -6.0890   -2.9390 o         1 MOL     -0.550953
     23 C9          0.0930   -5.7340   -1.1410 c3        1 MOL      0.097940
     24 C10        -0.4750   -4.5140   -1.8400 c3        1 MOL      0.127817
     25 C11        -0.8080   -5.9970    0.0870 c3        1 MOL     -0.155211
     26 C12        -1.8910   -4.6460   -2.3970 c3        1 MOL     -0.387660
     27 H8          1.4020   -3.6430    0.1320 hn        1 MOL      0.124293
     28 H9          1.8470   -6.5980   -0.2750 h1        1 MOL      0.114873
     29 H10        -0.0890   -6.6360   -1.7200 hc        1 MOL     -0.004222
     30 H11         0.1660   -4.3450   -2.7100 hc        1 MOL      0.013323
     31 H12        -0.3180   -3.6630   -1.1820 hc        1 MOL      0.013323
     32 H13        -1.8090   -6.3820   -0.0920 hc        1 MOL      0.019673
     33 H14        -0.3020   -6.7300    0.7210 hc        1 MOL      0.019673
     34 H15        -1.0420   -5.1690    0.7500 hc        1 MOL      0.019673
     35 H16        -2.5310   -5.1410   -1.6590 hc        1 MOL      0.106329
     36 H17        -2.2300   -3.6200   -2.4480 hc        1 MOL      0.106329
     37 H18        -1.8880   -5.1600   -3.3520 hc        1 MOL      0.106329
     38 N3          2.9960   -4.0310   -2.0470 n         1 MOL     -0.226677
     39 C13         3.6020   -3.5860   -3.3050 c3        1 MOL     -0.004041
     40 C14         4.9340   -2.7630   -3.2270 c         1 MOL      0.432051
     41 O6          5.5140   -2.3640   -4.2340 o         1 MOL     -0.558516
     42 C15         2.5620   -2.7420   -4.1540 c3        1 MOL     -0.119691
     43 C16         2.1940   -1.3420   -3.4450 c         1 MOL      0.726299
     44 O7          2.8270   -1.0030   -2.3950 o         1 MOL     -0.687359
     45 O8          1.2910   -0.6320   -3.9520 o         1 MOL     -0.687359
     46 H19         2.9990   -3.4650   -1.2160 hn        1 MOL      0.148165
     47 H20         3.8280   -4.4710   -3.8930 h1        1 MOL      0.086913
     48 H21         1.6320   -3.3090   -4.1820 hc        1 MOL      0.029681
     49 H22         3.0220   -2.5720   -5.1250 hc        1 MOL      0.029681
     50 N4          5.4380   -2.4960   -2.0110 n         1 MOL     -0.167402
     51 C17         6.8140   -1.9760   -1.7090 c3        1 MOL     -0.257474
     52 C18         7.0690   -0.4540   -1.8750 c         1 MOL      0.561705
     53 O9          8.2140   -0.0510   -1.6900 o         1 MOL     -0.636511
     54 H23         4.9720   -2.9150   -1.2150 hn        1 MOL      0.147316
     55 H24         7.4780   -2.5250   -2.3770 h1        1 MOL      0.118914
     56 H25         7.0510   -2.1910   -0.6770 h1        1 MOL      0.118914
     57 N5          6.0940    0.2770   -2.3250 n         1 MOL     -0.124097
     58 C19         6.3120    1.6480   -2.7990 c3        1 MOL      0.070373
     59 C20         6.6170    2.6480   -1.7480 c         1 MOL      0.449492
     60 O10         7.3160    3.6270   -1.9630 o         1 MOL     -0.577069
     61 C21         4.9820    2.0100   -3.5940 c3        1 MOL     -0.415065
     62 C22         3.7160    2.0060   -2.7380 c         1 MOL      0.926109
     63 O11         3.6700    1.6540   -1.5590 o         1 MOL     -0.750911
     64 O12         2.7160    2.5760   -3.1870 o         1 MOL     -0.750911
     65 H26         5.1710   -0.1300   -2.3700 hn        1 MOL      0.075014
     66 H27         7.1560    1.6320   -3.4850 h1        1 MOL      0.063939
     67 H28         4.8700    1.2630   -4.3730 hc        1 MOL      0.105438
     68 H29         5.0630    3.0480   -3.9050 hc        1 MOL      0.105438
     69 N6          6.2650    2.3130   -0.4980 n         1 MOL     -0.101596
     70 C23         6.6910    3.0840    0.7160 c3        1 MOL     -0.290967
     71 C24         5.6500    3.7370    1.6330 c         1 MOL      0.537689
     72 O13         6.0600    4.5240    2.4640 o         1 MOL     -0.585987
     73 H30         5.8680    1.3840   -0.3740 hn        1 MOL      0.200835
     74 H31         7.2460    3.9640    0.3770 h1        1 MOL      0.118838
     75 H32         7.2580    2.4310    1.3900 h1        1 MOL      0.118838
     76 N7          4.3310    3.5800    1.4200 n         1 MOL     -0.204713
     77 C25         3.1680    4.2460    1.9420 c3        1 MOL     -0.128385
     78 C26         2.0370    3.2070    2.0230 c         1 MOL      0.434959
     79 O14         1.9850    2.2960    1.1600 o         1 MOL     -0.504416
     80 C27         2.6630    5.3100    0.8830 c3        1 MOL     -0.051027
     81 C28         3.6970    6.3380    0.6250 c3        1 MOL     -0.330210
     82 C29         3.1000    7.5090   -0.1040 c         1 MOL      0.609561
     83 N8          2.8280    7.3660   -1.3590 n         1 MOL     -0.770874
     84 O15         2.6480    8.4930    0.4490 o         1 MOL     -0.586424
     85 H33         4.1390    2.9760    0.6300 hn        1 MOL      0.106320
     86 H34         3.3690    4.6430    2.9430 h1        1 MOL      0.093204
     87 H35         1.8680    5.8180    1.4320 hc        1 MOL      0.103271
     88 H36         2.2430    4.8650   -0.0070 hc        1 MOL      0.103271
     89 H37         4.4850    5.8730    0.0370 hc        1 MOL      0.138517
     90 H38         4.1820    6.6080    1.5640 hc        1 MOL      0.138517
     91 H39         3.0680    6.5140   -1.8510 hn        1 MOL      0.368637
     92 H40         2.3180    8.1240   -1.7860 hn        1 MOL      0.368637
     93 N9          1.1050    3.4060    2.9870 n         1 MOL     -0.434339
     94 C30        -0.0180    2.4520    3.1160 c3        1 MOL      0.086690
     95 C31        -1.2240    2.9540    2.2690 c         1 MOL      0.411388
     96 O16        -1.5470    4.1250    2.3250 o         1 MOL     -0.594420
     97 C32        -0.5130    2.2980    4.4980 c3        1 MOL      0.064378
     98 C33        -1.5660    1.1730    4.6590 c3        1 MOL     -0.254409
     99 C34         0.6060    1.8220    5.5030 c3        1 MOL     -0.254409
    100 H41         1.2770    4.2050    3.5850 hn        1 MOL      0.300916
    101 H42         0.3200    1.4930    2.7150 h1        1 MOL      0.214961
    102 H43        -0.8210    3.2480    4.9270 hc        1 MOL      0.016836
    103 H44        -1.8170    0.9640    5.7020 hc        1 MOL      0.062250
    104 H45        -2.5350    1.3710    4.2060 hc        1 MOL      0.062250
    105 H46        -1.1050    0.2720    4.2510 hc        1 MOL      0.062250
    106 H47         0.9950    0.8430    5.2000 hc        1 MOL      0.062250
    107 H48         1.4520    2.5110    5.4700 hc        1 MOL      0.062250
    108 H49         0.1500    1.7050    6.4820 hc        1 MOL      0.062250
    109 N10        -1.9240    2.0890    1.5440 n         1 MOL     -0.147881
    110 C35        -2.9790    2.4970    0.6140 c3        1 MOL      0.416618
    111 C36        -4.3390    1.8940    1.0810 c         1 MOL      0.089864
    112 O17        -4.3680    1.0600    2.0110 o         1 MOL     -0.438768
    113 C37        -2.5250    1.9840   -0.7730 c3        1 MOL     -0.407239
    114 C38        -3.5620    1.9560   -1.8970 c         1 MOL      0.804750
    115 N11        -3.8800    3.1240   -2.4750 n         1 MOL     -0.788358
    116 O18        -4.0350    0.9110   -2.2590 o         1 MOL     -0.530295
    117 H50        -1.6460    1.1210    1.4750 hn        1 MOL      0.084669
    118 H51        -3.1470    3.5710    0.6310 h1        1 MOL     -0.009399
    119 H52        -2.0240    1.0140   -0.7990 hc        1 MOL      0.112631
    120 H53        -1.8380    2.7400   -1.1340 hc        1 MOL      0.112631
    121 H54        -3.5390    4.0050   -2.1230 hn        1 MOL      0.337172
    122 H55        -4.5180    3.2040   -3.2580 hn        1 MOL      0.337172
    123 N12        -5.4920    2.2120    0.4360 n         1 MOL     -0.082038
    124 C39        -6.7010    1.6560    0.8440 c3        1 MOL      0.190098
    125 C40        -6.8140    0.1200    0.6100 c         1 MOL      0.347944
    126 O19        -7.6000   -0.4200    1.4200 o         1 MOL     -0.579553
    127 C41        -7.9100    2.4210    0.0770 c3        1 MOL     -0.487498
    128 C42        -7.5770    2.8660   -1.3560 ca        1 MOL      0.170310
    129 C43        -7.3360    1.9560   -2.3930 ca        1 MOL     -0.157880
    130 C44        -7.6420    4.2370   -1.6300 ca        1 MOL     -0.157880
    131 C45        -6.9800    2.2980   -3.6900 ca        1 MOL     -0.320792
    132 C46        -7.3810    4.6360   -2.9330 ca        1 MOL     -0.320792
    133 C47        -7.0390    3.6950   -3.9980 ca        1 MOL      0.448127
    134 O20        -6.7240    4.1550   -5.2190 oh        1 MOL     -0.597157
    135 H56        -5.4000    2.8640   -0.3320 hn        1 MOL      0.080512
    136 H57        -6.7360    1.8270    1.9180 h1        1 MOL      0.062052
    137 H58        -8.1260    3.3010    0.6850 hc        1 MOL      0.147977
    138 H59        -8.7570    1.7740   -0.1170 hc        1 MOL      0.147977
    139 H60        -7.3690    0.9140   -2.1340 ha        1 MOL      0.125625
    140 H61        -7.7420    4.9780   -0.8440 ha        1 MOL      0.125625
    141 H62        -6.8440    1.5800   -4.4740 ha        1 MOL      0.145951
    142 H63        -7.4730    5.6800   -3.1820 ha        1 MOL      0.145951
    143 H64        -6.3320    3.4410   -5.7270 ho        1 MOL      0.447742
    144 N13        -6.0560   -0.5160   -0.2420 n         1 MOL     -0.129278
    145 C48        -6.0550   -1.9840   -0.3180 c3        1 MOL     -0.039379
    146 C49        -5.2350   -2.6200    0.7810 c         1 MOL      0.336098
    147 O21        -5.1910   -3.8400    0.8770 o         1 MOL     -0.503781
    148 C50        -5.4750   -2.4630   -1.7180 c3        1 MOL      0.038615
    149 C51        -6.3590   -1.8940   -2.8430 c3        1 MOL     -0.084506
    150 C52        -6.2160   -2.5570   -4.2150 c         1 MOL      0.658275
    151 O22        -6.3460   -3.7960   -4.3080 o         1 MOL     -0.722329
    152 O23        -5.9250   -1.8320   -5.2010 o         1 MOL     -0.722329
    153 H65        -5.4430    0.0210   -0.8350 hn        1 MOL      0.194131
    154 H66        -7.0830   -2.3460   -0.2530 h1        1 MOL      0.116546
    155 H67        -5.5760   -3.5550   -1.7300 hc        1 MOL      0.023049
    156 H68        -4.4760   -2.0730   -1.9100 hc        1 MOL      0.023049
    157 H69        -6.2520   -0.8070   -2.8240 hc        1 MOL     -0.013980
    158 H70        -7.3600   -2.1250   -2.4930 hc        1 MOL     -0.013980
    159 N14        -4.6080   -1.7940    1.6450 n         1 MOL     -0.236085
    160 C53        -3.6260   -2.1930    2.6710 c3        1 MOL     -0.111963
    161 C54        -4.0960   -1.7770    4.0720 c         1 MOL      0.393091
    162 O24        -3.4980   -2.0590    5.1170 o         1 MOL     -0.540570
    163 C55        -2.2800   -1.5090    2.3190 c3        1 MOL     -0.077507
    164 C56        -1.7640   -1.8370    0.8650 c3        1 MOL     -0.234355
    165 C57        -0.3660   -1.2480    0.6780 c         1 MOL      1.019384
    166 O25         0.5880   -1.9490    0.2830 o         1 MOL     -0.913192
    167 O26        -0.1650   -0.0510    0.8800 o         1 MOL     -0.913192
    168 H71        -4.6970   -0.8010    1.4810 hn        1 MOL      0.177922
    169 H72        -3.5070   -3.2770    2.6110 h1        1 MOL      0.134813
    170 H73        -1.4700   -1.7620    2.9980 hc        1 MOL      0.121592
    171 H74        -2.4570   -0.4370    2.4430 hc        1 MOL      0.121592
    172 H75        -2.4500   -1.4100    0.1310 hc        1 MOL      0.096773
    173 H76        -1.7360   -2.9280    0.8570 hc        1 MOL      0.096773
    174 N15        -5.2930   -1.1620    4.1710 n         1 MOL     -0.202359
    175 C58        -5.8330   -0.5910    5.4450 c3        1 MOL     -0.027742
    176 H77        -5.8090    0.4980    5.3920 h1        1 MOL      0.041971
    177 H78        -6.8600   -0.9250    5.5880 h1        1 MOL      0.041971
    178 H79        -5.2210   -0.9270    6.2820 h1        1 MOL      0.041971
    179 H80        -5.7660   -1.0210    3.2930 hn        1 MOL      0.201913
    180 Ca1         2.3780   -0.0830   -0.1320 Ca        1 MOL      1.762125
    181 O27         2.5750   -0.1910    2.5160 oh        1 MOL     -0.824561
    182 H81         1.8970   -0.6570    3.0030 ho        1 MOL      0.396491
    183 H82         3.3130   -0.1420    3.1290 ho        1 MOL      0.396491
    184 O28         5.1680    0.3550    1.4690 oh        1 MOL     -0.824561
    185 H83         4.8210    0.4840    2.3530 ho        1 MOL      0.396491
    186 H84         6.1100    0.2260    1.6110 ho        1 MOL      0.396491
    187 O29         0.6940    1.0680   -1.9650 oh        1 MOL     -0.824561
    188 H85         0.7260    0.3200   -2.5730 ho        1 MOL      0.396491
    189 H86         1.3520    1.6750   -2.3100 ho        1 MOL      0.396491
@<TRIPOS>BOND
     1    1    2 1   
     2    1    4 1   
     3    1    5 1   
     4    1    6 1   
     5    2    3 2   
     6    2    7 1   
     7    7    8 1   
     8    7   15 1   
     9    8    9 1   
    10    8   11 1   
    11    8   16 1   
    12    9   10 2   
    13    9   19 1   
    14   11   12 1   
    15   11   17 1   
    16   11   18 1   
    17   12   13 1   
    18   12   14 1   
    19   19   20 1   
    20   19   27 1   
    21   20   21 1   
    22   20   23 1   
    23   20   28 1   
    24   21   22 2   
    25   21   38 1   
    26   23   24 1   
    27   23   25 1   
    28   23   29 1   
    29   24   26 1   
    30   24   30 1   
    31   24   31 1   
    32   25   32 1   
    33   25   33 1   
    34   25   34 1   
    35   26   35 1   
    36   26   36 1   
    37   26   37 1   
    38   38   39 1   
    39   38   46 1   
    40   39   40 1   
    41   39   42 1   
    42   39   47 1   
    43   40   41 2   
    44   40   50 1   
    45   42   43 1   
    46   42   48 1   
    47   42   49 1   
    48   43   44 1   
    49   43   45 1   
    50   50   51 1   
    51   50   54 1   
    52   51   52 1   
    53   51   55 1   
    54   51   56 1   
    55   52   53 2   
    56   52   57 1   
    57   57   58 1   
    58   57   65 1   
    59   58   59 1   
    60   58   61 1   
    61   58   66 1   
    62   59   60 2   
    63   59   69 1   
    64   61   62 1   
    65   61   67 1   
    66   61   68 1   
    67   62   63 1   
    68   62   64 1   
    69   69   70 1   
    70   69   73 1   
    71   70   71 1   
    72   70   74 1   
    73   70   75 1   
    74   71   72 2   
    75   71   76 1   
    76   76   77 1   
    77   76   85 1   
    78   77   78 1   
    79   77   80 1   
    80   77   86 1   
    81   78   79 2   
    82   78   93 1   
    83   80   81 1   
    84   80   87 1   
    85   80   88 1   
    86   81   82 1   
    87   81   89 1   
    88   81   90 1   
    89   82   83 1   
    90   82   84 2   
    91   83   91 1   
    92   83   92 1   
    93   93   94 1   
    94   93  100 1   
    95   94   95 1   
    96   94   97 1   
    97   94  101 1   
    98   95   96 2   
    99   95  109 1   
   100   97   98 1   
   101   97   99 1   
   102   97  102 1   
   103   98  103 1   
   104   98  104 1   
   105   98  105 1   
   106   99  106 1   
   107   99  107 1   
   108   99  108 1   
   109  109  110 1   
   110  109  117 1   
   111  110  111 1   
   112  110  113 1   
   113  110  118 1   
   114  111  112 2   
   115  111  123 1   
   116  113  114 1   
   117  113  119 1   
   118  113  120 1   
   119  114  115 1   
   120  114  116 2   
   121  115  121 1   
   122  115  122 1   
   123  123  124 1   
   124  123  135 1   
   125  124  125 1   
   126  124  127 1   
   127  124  136 1   
   128  125  126 2   
   129  125  144 1   
   130  127  128 1   
   131  127  137 1   
   132  127  138 1   
   133  128  129 ar  
   134  128  130 ar  
   135  129  131 ar  
   136  129  139 1   
   137  130  132 ar  
   138  130  140 1   
   139  131  133 ar  
   140  131  141 1   
   141  132  133 ar  
   142  132  142 1   
   143  133  134 1   
   144  134  143 1   
   145  144  145 1   
   146  144  153 1   
   147  145  146 1   
   148  145  148 1   
   149  145  154 1   
   150  146  147 2   
   151  146  159 1   
   152  148  149 1   
   153  148  155 1   
   154  148  156 1   
   155  149  150 1   
   156  149  157 1   
   157  149  158 1   
   158  150  151 1   
   159  150  152 1   
   160  159  160 1   
   161  159  168 1   
   162  160  161 1   
   163  160  163 1   
   164  160  169 1   
   165  161  162 2   
   166  161  174 1   
   167  163  164 1   
   168  163  170 1   
   169  163  171 1   
   170  164  165 1   
   171  164  172 1   
   172  164  173 1   
   173  165  166 1   
   174  165  167 1   
   175  174  175 1   
   176  174  179 1   
   177  175  176 1   
   178  175  177 1   
   179  175  178 1   
   180  181  182 1   
   181  181  183 1   
   182  184  185 1   
   183  184  186 1   
   184  187  188 1   
   185  187  189 1   
@<TRIPOS>SUBSTRUCTURE
     1 MOL         1 TEMP              0 ****  ****    0 ROOT
