@<TRIPOS>MOLECULE
MOL
  172   171     1     0     0
SMALL
resp


@<TRIPOS>ATOM
      1 C1          0.4830    4.2420    5.5290 c3        1 MOL     -0.465705
      2 C2         -0.0370    4.0150    4.1160 c         1 MOL      0.738049
      3 O1          0.7140    4.0300    3.1770 o         1 MOL     -0.561161
      4 H1         -0.3600    4.3340    6.2150 hc        1 MOL      0.112797
      5 H2          1.1030    3.3980    5.8290 hc        1 MOL      0.112797
      6 H3          1.0750    5.1570    5.5570 hc        1 MOL      0.112797
      7 N1         -1.3610    3.8000    3.9870 n         1 MOL     -0.674949
      8 C3         -1.9410    3.4880    2.7330 c3        1 MOL      0.288266
      9 C4         -1.8180    4.6990    1.8050 c         1 MOL      0.602286
     10 O2         -1.9980    5.8600    2.1880 o         1 MOL     -0.610500
     11 C5         -3.3340    3.0010    2.9300 c3        1 MOL     -0.396283
     12 C6         -3.9620    2.7160    1.5340 c         1 MOL      0.709491
     13 O3         -4.6760    3.5970    0.9520 o         1 MOL     -0.667584
     14 O4         -3.5860    1.6330    0.9480 o         1 MOL     -0.667584
     15 H4         -1.9340    3.7610    4.8200 hn        1 MOL      0.332771
     16 H5         -1.4510    2.6250    2.2670 h1        1 MOL      0.024110
     17 H6         -3.8610    3.6910    3.5920 hc        1 MOL      0.074224
     18 H7         -3.2520    2.0180    3.3790 hc        1 MOL      0.074224
     19 N2         -1.6250    4.4250    0.5390 n         1 MOL     -0.473516
     20 C7         -1.5760    5.4380   -0.5460 c3        1 MOL      0.372947
     21 C8         -2.2090    4.8710   -1.8870 c         1 MOL      0.367281
     22 O5         -1.9540    5.4430   -2.9330 o         1 MOL     -0.550770
     23 C9         -0.1350    6.0280   -0.7400 c3        1 MOL     -0.245550
     24 H8         -1.3450    3.4680    0.3600 hn        1 MOL      0.277009
     25 H9         -2.2430    6.2710   -0.3330 h1        1 MOL      0.000410
     26 H10         0.0810    6.5810    0.1770 hc        1 MOL      0.044899
     27 H11         0.5480    5.2180   -0.9590 hc        1 MOL      0.044899
     28 H12        -0.1620    6.7410   -1.5700 hc        1 MOL      0.044899
     29 N3         -3.0240    3.7950   -1.8210 n         1 MOL     -0.168517
     30 C10        -3.9880    3.4990   -2.9970 c3        1 MOL      0.207062
     31 C11        -5.4040    3.1460   -2.5320 c         1 MOL      0.247030
     32 O6         -6.3570    3.5910   -3.1770 o         1 MOL     -0.572734
     33 C12        -3.2840    2.4140   -3.8290 c3        1 MOL     -0.200022
     34 C13        -2.6270    1.2660   -2.9310 c         1 MOL      0.557563
     35 O7         -3.3770    0.7750   -2.0660 o         1 MOL     -0.628664
     36 O8         -1.3800    0.9920   -2.9570 o         1 MOL     -0.628664
     37 H13        -3.2310    3.4590   -0.8940 hn        1 MOL      0.061375
     38 H14        -4.1090    4.3820   -3.6190 h1        1 MOL      0.037661
     39 H15        -2.5130    2.9840   -4.3560 hc        1 MOL      0.038087
     40 H16        -3.9350    2.0210   -4.6040 hc        1 MOL      0.038087
     41 N4         -5.5700    2.4290   -1.4380 n         1 MOL      0.237443
     42 C14        -6.8760    1.9690   -0.9600 c3        1 MOL     -0.390050
     43 C15        -7.1450    0.5160   -1.2630 c         1 MOL      0.523234
     44 O9         -8.3120    0.0480   -0.9850 o         1 MOL     -0.621806
     45 H17        -4.7290    2.1690   -0.9430 hn        1 MOL     -0.034660
     46 H18        -7.6080    2.6670   -1.3840 h1        1 MOL      0.158065
     47 H19        -6.7950    2.0700    0.1160 h1        1 MOL      0.158065
     48 N5         -6.2650   -0.2410   -1.8680 n         1 MOL     -0.251985
     49 C16        -6.5000   -1.6120   -2.3180 c3        1 MOL      0.085624
     50 C17        -6.8470   -2.5430   -1.1500 c         1 MOL      0.370727
     51 O10        -7.3300   -3.6950   -1.3200 o         1 MOL     -0.556403
     52 C18        -5.2550   -2.1380   -3.1050 c3        1 MOL     -0.186033
     53 C19        -3.9420   -1.9840   -2.4060 c         1 MOL      0.760785
     54 N6         -2.8740   -2.2340   -3.1010 n         1 MOL     -0.742774
     55 O11        -3.8240   -1.7240   -1.2130 o         1 MOL     -0.746668
     56 H20        -5.4270    0.2120   -2.2030 hn        1 MOL      0.185324
     57 H21        -7.3390   -1.6120   -3.0100 h1        1 MOL      0.060586
     58 H22        -5.2830   -1.5770   -4.0320 hc        1 MOL      0.053876
     59 H23        -5.4570   -3.1870   -3.3400 hc        1 MOL      0.053876
     60 H24        -2.9180   -2.3010   -4.1000 hn        1 MOL      0.359455
     61 H25        -2.0160   -2.1200   -2.5800 hn        1 MOL      0.359455
     62 N7         -6.5420   -2.1310    0.0480 n         1 MOL      0.060767
     63 C20        -6.8580   -2.9260    1.2550 c3        1 MOL     -0.443279
     64 C21        -5.8240   -3.8800    1.7460 c         1 MOL      0.693618
     65 O12        -6.0450   -4.7720    2.5180 o         1 MOL     -0.614004
     66 H26        -6.0670   -1.2390    0.1390 hn        1 MOL      0.159974
     67 H27        -7.7050   -3.5830    1.0940 h1        1 MOL      0.146929
     68 H28        -6.9720   -2.2350    2.0990 h1        1 MOL      0.146929
     69 N8         -4.6060   -3.7300    1.2680 n         1 MOL     -0.283489
     70 C22        -3.3260   -4.4240    1.6130 c3        1 MOL     -0.255940
     71 C23        -2.0930   -3.5260    1.6160 c         1 MOL      0.621355
     72 O13        -2.2300   -2.5030    0.8810 o         1 MOL     -0.588627
     73 C24        -2.9880   -5.3880    0.4920 c3        1 MOL      0.678590
     74 C25        -3.8380   -6.6520    0.4390 c3        1 MOL     -0.430832
     75 O14        -2.9730   -4.7090   -0.7330 oh        1 MOL     -0.703783
     76 H29        -4.5760   -3.0760    0.5050 hn        1 MOL      0.189140
     77 H30        -3.3760   -5.0740    2.4830 h1        1 MOL      0.093717
     78 H31        -1.9700   -5.7730    0.5790 h1        1 MOL     -0.086773
     79 H32        -2.5860   -3.8340   -0.7270 ho        1 MOL      0.442905
     80 H33        -4.8930   -6.4680    0.6360 hc        1 MOL      0.102448
     81 H34        -3.7850   -7.0400   -0.5790 hc        1 MOL      0.102448
     82 H35        -3.5290   -7.4160    1.1600 hc        1 MOL      0.102448
     83 N9         -0.9850   -3.8130    2.3450 n         1 MOL     -0.570541
     84 C26         0.2470   -3.0060    2.2110 c3        1 MOL      0.157138
     85 C27         1.0760   -3.4860    0.9900 c         1 MOL      0.353273
     86 O15         1.0050   -4.6360    0.5580 o         1 MOL     -0.512127
     87 C28         1.1220   -3.0380    3.4990 c3        1 MOL      0.183452
     88 C29         0.4770   -2.2650    4.6690 c3        1 MOL      0.042817
     89 C30         2.5870   -2.5520    3.3260 c3        1 MOL     -0.085155
     90 C31         1.3610   -2.1920    5.8490 c3        1 MOL     -0.192916
     91 H36        -0.9320   -4.6580    2.8940 hn        1 MOL      0.300684
     92 H37        -0.1170   -1.9820    2.1190 h1        1 MOL     -0.057283
     93 H38         1.1410   -4.0960    3.7460 hc        1 MOL     -0.033741
     94 H39        -0.4870   -2.7360    4.9040 hc        1 MOL     -0.004001
     95 H40         0.2720   -1.2310    4.3920 hc        1 MOL     -0.004001
     96 H41         3.2140   -3.1110    2.6220 hc        1 MOL      0.004793
     97 H42         2.6070   -1.5130    3.0010 hc        1 MOL      0.004793
     98 H43         3.1660   -2.7610    4.2310 hc        1 MOL      0.004793
     99 H44         0.6780   -2.0680    6.6970 hc        1 MOL      0.042555
    100 H45         1.8610   -3.1620    5.9190 hc        1 MOL      0.042555
    101 H46         2.0310   -1.3300    5.8850 hc        1 MOL      0.042555
    102 N10         1.7520   -2.5110    0.3240 n         1 MOL     -0.235080
    103 C32         2.4850   -2.6240   -0.8740 c3        1 MOL      0.046945
    104 C33         3.8220   -1.8720   -0.6530 c         1 MOL      0.464640
    105 O16         4.0710   -1.1690    0.4020 o         1 MOL     -0.414028
    106 C34         1.7600   -2.0910   -2.0850 c3        1 MOL     -0.294151
    107 C35         0.2620   -2.2150   -2.3420 c         1 MOL      0.752674
    108 O17        -0.5650   -1.6890   -1.5900 o         1 MOL     -0.678333
    109 O18        -0.1510   -2.5900   -3.4530 o         1 MOL     -0.678333
    110 H47         1.5600   -1.5920    0.7030 hn        1 MOL      0.235269
    111 H48         2.8360   -3.6380   -1.0860 h1        1 MOL      0.070198
    112 H49         2.2720   -2.4100   -2.9960 hc        1 MOL      0.076981
    113 H50         1.9210   -1.0210   -2.1550 hc        1 MOL      0.076981
    114 N11         4.7510   -2.0450   -1.5770 n         1 MOL     -0.599090
    115 C36         6.1550   -1.7280   -1.2900 c3        1 MOL      0.225768
    116 C37         6.4710   -0.2220   -1.0780 c         1 MOL      0.217845
    117 O19         7.0860    0.1000   -0.0740 o         1 MOL     -0.436400
    118 C38         7.1000   -2.4100   -2.2940 c3        1 MOL     -0.222269
    119 C39         8.5480   -2.1310   -2.0480 ca        1 MOL      0.085618
    120 C40         9.3650   -2.6720   -0.9780 ca        1 MOL     -0.211736
    121 C41         9.1170   -1.1170   -2.8980 ca        1 MOL     -0.211736
    122 C42        10.7410   -2.4570   -0.9810 ca        1 MOL      0.016815
    123 C43        10.5330   -0.7900   -2.8020 ca        1 MOL      0.016815
    124 C44        11.3280   -1.6190   -1.9840 ca        1 MOL     -0.273006
    125 H51         4.5320   -2.6900   -2.3300 hn        1 MOL      0.343313
    126 H52         6.2780   -2.2420   -0.3330 h1        1 MOL      0.097097
    127 H53         6.7580   -2.3700   -3.3270 hc        1 MOL      0.077468
    128 H54         6.9600   -3.4820   -2.1270 hc        1 MOL      0.077468
    129 H55         8.9620   -3.3170   -0.2160 ha        1 MOL      0.131369
    130 H56         8.5630   -0.6400   -3.6870 ha        1 MOL      0.131369
    131 H57        11.3440   -2.9870   -0.2630 ha        1 MOL      0.086799
    132 H58        10.9070   -0.0700   -3.5140 ha        1 MOL      0.086799
    133 H59        12.3990   -1.5000   -1.8690 ha        1 MOL      0.132593
    134 N12         6.0660    0.7210   -1.8690 n         1 MOL      0.076405
    135 C45         6.2600    2.1250   -1.4680 c3        1 MOL     -0.003678
    136 C46         5.5880    2.5120   -0.1630 c         1 MOL      0.266787
    137 O20         6.0870    3.4120    0.5080 o         1 MOL     -0.489897
    138 C47         5.5440    2.9380   -2.6510 c3        1 MOL     -0.058495
    139 C48         5.7410    2.0210   -3.8170 c3        1 MOL     -0.083273
    140 C49         5.5910    0.6210   -3.2400 c3        1 MOL     -0.005486
    141 H60         7.3130    2.3680   -1.3260 h1        1 MOL      0.072584
    142 H61         4.4810    3.0080   -2.3990 hc        1 MOL      0.065345
    143 H62         6.0590    3.8600   -2.9040 hc        1 MOL      0.065345
    144 H63         4.9570    2.3410   -4.4970 hc        1 MOL      0.033484
    145 H64         6.7350    2.1510   -4.2320 hc        1 MOL      0.033484
    146 H65         4.5470    0.3000   -3.3180 h1        1 MOL      0.039260
    147 H66         6.1630   -0.0720   -3.8630 h1        1 MOL      0.039260
    148 N13         4.5450    1.8000    0.3310 n         1 MOL     -0.143457
    149 C50         4.0940    2.0750    1.7250 c3        1 MOL     -0.079356
    150 C51         4.9220    1.4340    2.8200 c         1 MOL      0.517957
    151 O21         5.0370    1.9010    3.9110 o         1 MOL     -0.582876
    152 C52         2.6940    1.5050    1.8230 c3        1 MOL     -0.147919
    153 C53         1.7730    2.1740    0.8180 c3        1 MOL      0.129808
    154 C54         0.4250    1.4490    0.6260 c         1 MOL      0.588145
    155 O22         0.3940    0.2430    0.8950 o         1 MOL     -0.690395
    156 O23        -0.5430    1.9740    0.0200 o         1 MOL     -0.690395
    157 H67         4.2230    0.9380   -0.0940 hn        1 MOL      0.145086
    158 H68         4.1240    3.1440    1.9330 h1        1 MOL      0.121425
    159 H69         2.3410    1.6180    2.8450 hc        1 MOL      0.066493
    160 H70         2.6950    0.4270    1.6630 hc        1 MOL      0.066493
    161 H71         2.1970    2.1510   -0.1860 hc        1 MOL     -0.000752
    162 H72         1.7320    3.2390    1.0680 hc        1 MOL     -0.000752
    163 N14         5.4510    0.2580    2.5050 n         1 MOL     -0.119352
    164 C55         6.5090   -0.4510    3.2900 c3        1 MOL     -0.166519
    165 H73         7.3080   -0.7670    2.6190 h1        1 MOL      0.068192
    166 H74         6.9130    0.2230    4.0460 h1        1 MOL      0.068192
    167 H75         6.0760   -1.3260    3.7760 h1        1 MOL      0.068192
    168 H76         5.2360   -0.1110    1.5910 hn        1 MOL      0.117186
    169 Ca1        -2.0210   -0.1130   -0.1030 Ca        1 MOL      1.725808
    170 O24        -1.8240    0.1420    2.7040 oh        1 MOL     -0.757298
    171 H77        -0.8890    0.1740    2.9360 ho        1 MOL      0.374587
    172 H78        -2.2640   -0.0870    3.5220 ho        1 MOL      0.374587
@<TRIPOS>BOND
     1    1    2 1   
     2    1    4 1   
     3    1    5 1   
     4    1    6 1   
     5    2    3 2   
     6    2    7 1   
     7    7    8 1   
     8    7   15 1   
     9    8    9 1   
    10    8   11 1   
    11    8   16 1   
    12    9   10 2   
    13    9   19 1   
    14   11   12 1   
    15   11   17 1   
    16   11   18 1   
    17   12   13 1   
    18   12   14 1   
    19   19   20 1   
    20   19   24 1   
    21   20   21 1   
    22   20   23 1   
    23   20   25 1   
    24   21   22 2   
    25   21   29 1   
    26   23   26 1   
    27   23   27 1   
    28   23   28 1   
    29   29   30 1   
    30   29   37 1   
    31   30   31 1   
    32   30   33 1   
    33   30   38 1   
    34   31   32 2   
    35   31   41 1   
    36   33   34 1   
    37   33   39 1   
    38   33   40 1   
    39   34   35 1   
    40   34   36 1   
    41   41   42 1   
    42   41   45 1   
    43   42   43 1   
    44   42   46 1   
    45   42   47 1   
    46   43   44 2   
    47   43   48 1   
    48   48   49 1   
    49   48   56 1   
    50   49   50 1   
    51   49   52 1   
    52   49   57 1   
    53   50   51 2   
    54   50   62 1   
    55   52   53 1   
    56   52   58 1   
    57   52   59 1   
    58   53   54 1   
    59   53   55 2   
    60   54   60 1   
    61   54   61 1   
    62   62   63 1   
    63   62   66 1   
    64   63   64 1   
    65   63   67 1   
    66   63   68 1   
    67   64   65 2   
    68   64   69 1   
    69   69   70 1   
    70   69   76 1   
    71   70   71 1   
    72   70   73 1   
    73   70   77 1   
    74   71   72 2   
    75   71   83 1   
    76   73   74 1   
    77   73   75 1   
    78   73   78 1   
    79   74   80 1   
    80   74   81 1   
    81   74   82 1   
    82   75   79 1   
    83   83   84 1   
    84   83   91 1   
    85   84   85 1   
    86   84   87 1   
    87   84   92 1   
    88   85   86 2   
    89   85  102 1   
    90   87   88 1   
    91   87   89 1   
    92   87   93 1   
    93   88   90 1   
    94   88   94 1   
    95   88   95 1   
    96   89   96 1   
    97   89   97 1   
    98   89   98 1   
    99   90   99 1   
   100   90  100 1   
   101   90  101 1   
   102  102  103 1   
   103  102  110 1   
   104  103  104 1   
   105  103  106 1   
   106  103  111 1   
   107  104  105 2   
   108  104  114 1   
   109  106  107 1   
   110  106  112 1   
   111  106  113 1   
   112  107  108 1   
   113  107  109 1   
   114  114  115 1   
   115  114  125 1   
   116  115  116 1   
   117  115  118 1   
   118  115  126 1   
   119  116  117 2   
   120  116  134 1   
   121  118  119 1   
   122  118  127 1   
   123  118  128 1   
   124  119  120 ar  
   125  119  121 ar  
   126  120  122 ar  
   127  120  129 1   
   128  121  123 ar  
   129  121  130 1   
   130  122  124 ar  
   131  122  131 1   
   132  123  124 ar  
   133  123  132 1   
   134  124  133 1   
   135  134  135 1   
   136  134  140 1   
   137  135  136 1   
   138  135  138 1   
   139  135  141 1   
   140  136  137 2   
   141  136  148 1   
   142  138  139 1   
   143  138  142 1   
   144  138  143 1   
   145  139  140 1   
   146  139  144 1   
   147  139  145 1   
   148  140  146 1   
   149  140  147 1   
   150  148  149 1   
   151  148  157 1   
   152  149  150 1   
   153  149  152 1   
   154  149  158 1   
   155  150  151 2   
   156  150  163 1   
   157  152  153 1   
   158  152  159 1   
   159  152  160 1   
   160  153  154 1   
   161  153  161 1   
   162  153  162 1   
   163  154  155 1   
   164  154  156 1   
   165  163  164 1   
   166  163  168 1   
   167  164  165 1   
   168  164  166 1   
   169  164  167 1   
   170  170  171 1   
   171  170  172 1   
@<TRIPOS>SUBSTRUCTURE
     1 MOL         1 TEMP              0 ****  ****    0 ROOT
