@<TRIPOS>MOLECULE
MOL
  175   173     1     0     0
SMALL
resp


@<TRIPOS>ATOM
      1 C1          0.4580    4.4090    5.2860 c3        1 MOL     -0.384124
      2 C2         -0.2220    4.2220    3.9430 c         1 MOL      0.744197
      3 O1          0.3890    4.3230    2.8910 o         1 MOL     -0.571035
      4 H1         -0.2860    4.3500    6.0800 hc        1 MOL      0.096256
      5 H2          1.2040    3.6280    5.4280 hc        1 MOL      0.096256
      6 H3          0.9430    5.3850    5.3150 hc        1 MOL      0.096256
      7 N1         -1.5340    3.7890    3.9540 n         1 MOL     -0.818408
      8 C3         -2.2790    3.4710    2.6970 c3        1 MOL      0.373086
      9 C4         -2.5850    4.6730    1.7300 c         1 MOL      0.531501
     10 O2         -3.3100    5.5830    2.0600 o         1 MOL     -0.584872
     11 C5         -3.5770    2.6750    3.0620 c3        1 MOL     -0.338118
     12 C6         -4.2790    2.1400    1.7850 c         1 MOL      0.727770
     13 O3         -5.5230    2.1590    1.7340 o         1 MOL     -0.669260
     14 O4         -3.6660    1.7950    0.7780 o         1 MOL     -0.669260
     15 H4         -2.0150    3.9240    4.8330 hn        1 MOL      0.365337
     16 H5         -1.6830    2.7280    2.1560 h1        1 MOL      0.086305
     17 H6         -4.1970    3.3650    3.6340 hc        1 MOL      0.053387
     18 H7         -3.2690    1.8320    3.6890 hc        1 MOL      0.053387
     19 N2         -2.3230    4.4970    0.4320 n         1 MOL     -0.432874
     20 C7         -2.7190    5.4230   -0.7000 c3        1 MOL      0.313539
     21 C8         -3.7640    5.0170   -1.6580 c         1 MOL      0.471157
     22 O5         -4.2870    5.9950   -2.2960 o         1 MOL     -0.588496
     23 C9         -1.3770    5.6110   -1.4510 c3        1 MOL     -0.300659
     24 H8         -1.8990    3.6010    0.2230 hn        1 MOL      0.183129
     25 H9         -3.0100    6.4120   -0.3620 h1        1 MOL      0.019750
     26 H10        -1.5540    6.3470   -2.2260 hc        1 MOL      0.072574
     27 H11        -0.6680    6.0220   -0.7300 hc        1 MOL      0.072574
     28 H12        -0.9910    4.7760   -2.0360 hc        1 MOL      0.072574
     29 N3         -4.1540    3.7090   -1.6790 n         1 MOL     -0.356787
     30 C10        -5.0360    3.2400   -2.7230 c3        1 MOL      0.009322
     31 C11        -6.2200    2.2990   -2.3550 c         1 MOL      0.470082
     32 O6         -7.1190    2.2040   -3.1980 o         1 MOL     -0.563887
     33 C12        -4.1580    2.4200   -3.6940 c3        1 MOL     -0.208592
     34 C13        -3.3470    1.3320   -2.9580 c         1 MOL      0.762328
     35 O7         -2.2630    1.0440   -3.5040 o         1 MOL     -0.714703
     36 O8         -3.7880    0.9150   -1.8920 o         1 MOL     -0.714703
     37 H13        -3.7990    3.0510   -1.0000 hn        1 MOL      0.266491
     38 H14        -5.4230    4.0640   -3.3100 h1        1 MOL      0.102027
     39 H15        -3.4930    3.0780   -4.2490 hc        1 MOL      0.043587
     40 H16        -4.7720    1.8130   -4.3510 hc        1 MOL      0.043587
     41 N4         -6.4350    1.8950   -1.0650 n         1 MOL     -0.275427
     42 C14        -7.4720    1.0360   -0.5250 c3        1 MOL     -0.084731
     43 C15        -7.3650   -0.4700   -0.8910 c         1 MOL      0.459995
     44 O9         -8.3270   -1.2090   -0.6650 o         1 MOL     -0.624750
     45 H17        -5.7030    2.1030   -0.3990 hn        1 MOL      0.178030
     46 H18        -8.4360    1.4130   -0.8460 h1        1 MOL      0.090312
     47 H19        -7.5720    1.0900    0.5640 h1        1 MOL      0.090312
     48 N5         -6.2780   -0.8490   -1.4880 n         1 MOL     -0.269223
     49 C16        -6.2130   -2.2090   -1.9360 c3        1 MOL      0.240746
     50 C17        -6.1460   -3.3500   -0.9000 c         1 MOL      0.277572
     51 O10        -5.9950   -4.5070   -1.2880 o         1 MOL     -0.523081
     52 C18        -5.1610   -2.3150   -2.9990 c3        1 MOL     -0.353631
     53 C19        -3.7070   -2.1240   -2.4750 c         1 MOL      0.710688
     54 N6         -2.8210   -2.3680   -3.4070 n         1 MOL     -0.618339
     55 O11        -3.4350   -1.9830   -1.2820 o         1 MOL     -0.720316
     56 H20        -5.5340   -0.2080   -1.7220 hn        1 MOL      0.214001
     57 H21        -7.1120   -2.3750   -2.5360 h1        1 MOL      0.056483
     58 H22        -5.3500   -1.5630   -3.7630 hc        1 MOL      0.081491
     59 H23        -5.3170   -3.3040   -3.4310 hc        1 MOL      0.081491
     60 H24        -3.0190   -2.4070   -4.4000 hn        1 MOL      0.336355
     61 H25        -1.8700   -2.2530   -3.0800 hn        1 MOL      0.336355
     62 N7         -6.1910   -2.9690    0.3050 n         1 MOL     -0.058425
     63 C20        -6.1340   -3.9400    1.3940 c3        1 MOL     -0.394939
     64 C21        -4.7490   -4.4950    1.8380 c         1 MOL      0.522839
     65 O12        -4.6830   -5.1550    2.9480 o         1 MOL     -0.588428
     66 H26        -6.1320   -1.9830    0.5150 hn        1 MOL      0.237987
     67 H27        -6.6430   -4.8570    1.0720 h1        1 MOL      0.158900
     68 H28        -6.6940   -3.4760    2.2040 h1        1 MOL      0.158900
     69 N8         -3.7110   -4.2580    1.0710 n         1 MOL     -0.131659
     70 C22        -2.3390   -4.6210    1.3820 c3        1 MOL     -0.429239
     71 C23        -1.3630   -3.3850    1.5150 c         1 MOL      0.744818
     72 O13        -1.5270   -2.4190    0.7990 o         1 MOL     -0.476735
     73 C24        -1.8660   -5.4550    0.2370 c3        1 MOL      0.527805
     74 C25        -2.6620   -6.7910    0.0330 c3        1 MOL     -0.296607
     75 O14        -1.7030   -4.7550   -1.0070 oh        1 MOL     -0.580391
     76 H29        -3.7750   -3.5850    0.3320 hn        1 MOL      0.293193
     77 H30        -2.2930   -5.1600    2.3310 h1        1 MOL      0.134544
     78 H31        -0.8940   -5.8690    0.5270 h1        1 MOL     -0.046040
     79 H32        -1.7130   -3.8190   -0.7750 ho        1 MOL      0.311552
     80 H33        -3.5030   -6.7210   -0.6630 hc        1 MOL      0.067985
     81 H34        -2.0240   -7.6530   -0.1850 hc        1 MOL      0.067985
     82 H35        -3.1750   -7.0220    0.9640 hc        1 MOL      0.067985
     83 N9         -0.3410   -3.5450    2.3900 n         1 MOL     -0.649543
     84 C26         0.9000   -2.7400    2.1910 c3        1 MOL     -0.076059
     85 C27         1.5280   -2.9420    0.8540 c         1 MOL      0.523324
     86 O15         2.0190   -4.0840    0.5630 o         1 MOL     -0.576452
     87 C28         1.9750   -2.9040    3.3230 c3        1 MOL      0.237358
     88 C29         1.3930   -2.6860    4.7550 c3        1 MOL     -0.024424
     89 C30         3.1750   -1.9500    3.1620 c3        1 MOL     -0.221564
     90 C31         2.2400   -3.1500    5.8780 c3        1 MOL     -0.104914
     91 H36        -0.3190   -4.3580    2.9830 hn        1 MOL      0.345552
     92 H37         0.5880   -1.6880    2.2460 h1        1 MOL      0.119226
     93 H38         2.3520   -3.9250    3.1850 hc        1 MOL     -0.008095
     94 H39         0.4640   -3.2640    4.8710 hc        1 MOL      0.014365
     95 H40         1.0360   -1.6740    4.9660 hc        1 MOL      0.014365
     96 H41         3.6500   -2.2040    2.2230 hc        1 MOL      0.034416
     97 H42         2.8000   -0.9210    3.1110 hc        1 MOL      0.034416
     98 H43         3.8300   -2.1880    3.9990 hc        1 MOL      0.034416
     99 H44         2.7290   -4.1030    5.6780 hc        1 MOL      0.022304
    100 H45         3.0590   -2.4400    5.9820 hc        1 MOL      0.022304
    101 H46         1.7280   -3.2080    6.8430 hc        1 MOL      0.022304
    102 N10         1.7340   -1.8910    0.0280 n         1 MOL     -0.171755
    103 C32         2.6080   -1.9240   -1.1110 c3        1 MOL      0.086297
    104 C33         4.0090   -1.3430   -0.8750 c         1 MOL      0.455630
    105 O16         4.2400   -0.5420    0.0290 o         1 MOL     -0.311800
    106 C34         1.9570   -1.1600   -2.3320 c3        1 MOL     -0.446636
    107 C35         0.4460   -1.5210   -2.4400 c         1 MOL      0.835587
    108 O17         0.0580   -2.3420   -3.2970 o         1 MOL     -0.695459
    109 O18        -0.4100   -0.9650   -1.7660 o         1 MOL     -0.695459
    110 H47         1.3640   -1.0100    0.3380 hn        1 MOL      0.023314
    111 H48         2.6850   -2.9740   -1.4030 h1        1 MOL      0.075078
    112 H49         2.5870   -1.2790   -3.2220 hc        1 MOL      0.112223
    113 H50         2.0170   -0.0980   -2.1270 hc        1 MOL      0.112223
    114 N11         5.0200   -1.7650   -1.6210 n         1 MOL     -0.647877
    115 C36         6.4450   -1.3670   -1.3550 c3        1 MOL      0.368596
    116 C37         6.7720    0.1430   -1.1350 c         1 MOL      0.349235
    117 O19         7.4570    0.4990   -0.1820 o         1 MOL     -0.510621
    118 C38         7.3690   -2.0120   -2.4060 c3        1 MOL     -0.222550
    119 C39         8.8870   -1.9050   -2.1560 ca        1 MOL      0.096934
    120 C40         9.6320   -0.8060   -2.6650 ca        1 MOL     -0.186190
    121 C41         9.5280   -2.7420   -1.3130 ca        1 MOL     -0.186190
    122 C42        11.0030   -0.6580   -2.2410 ca        1 MOL     -0.073427
    123 C43        10.8920   -2.6520   -0.9620 ca        1 MOL     -0.073427
    124 C44        11.6590   -1.6030   -1.4590 ca        1 MOL     -0.138754
    125 H51         4.8910   -2.5080   -2.2840 hn        1 MOL      0.340797
    126 H52         6.7710   -1.8220   -0.4120 h1        1 MOL      0.022940
    127 H53         7.1090   -1.4030   -3.2700 hc        1 MOL      0.062969
    128 H54         7.1310   -3.0670   -2.5250 hc        1 MOL      0.062969
    129 H55         9.2590   -0.0540   -3.3320 ha        1 MOL      0.124137
    130 H56         8.9520   -3.5260   -0.8480 ha        1 MOL      0.124137
    131 H57        11.5030    0.1970   -2.6870 ha        1 MOL      0.098989
    132 H58        11.1910   -3.3880   -0.2270 ha        1 MOL      0.098989
    133 H59        12.7050   -1.5770   -1.1940 ha        1 MOL      0.110106
    134 N12         6.2380    1.0840   -1.8730 n         1 MOL      0.043662
    135 C45         6.4130    2.5130   -1.6160 c3        1 MOL     -0.028126
    136 C46         5.7410    2.9050   -0.3410 c         1 MOL      0.339543
    137 O20         6.2900    3.7910    0.3720 o         1 MOL     -0.528900
    138 C47         5.8980    3.1940   -2.8690 c3        1 MOL     -0.166852
    139 C48         4.7880    2.2560   -3.4210 c3        1 MOL      0.029537
    140 C49         5.5250    0.9290   -3.1210 c3        1 MOL     -0.063665
    141 H60         7.4700    2.7760   -1.5510 h1        1 MOL      0.077634
    142 H61         5.3780    4.1120   -2.5980 hc        1 MOL      0.066845
    143 H62         6.6960    3.4100   -3.5730 hc        1 MOL      0.066845
    144 H63         3.8730    2.2770   -2.8300 hc        1 MOL      0.032799
    145 H64         4.5310    2.5220   -4.4430 hc        1 MOL      0.032799
    146 H65         4.7610    0.1580   -3.0360 h1        1 MOL      0.013739
    147 H66         6.2220    0.6200   -3.9050 h1        1 MOL      0.013739
    148 N13         4.7040    2.2760    0.1000 n         1 MOL     -0.051175
    149 C50         4.0980    2.5500    1.3970 c3        1 MOL     -0.255995
    150 C51         4.9530    2.0160    2.4900 c         1 MOL      0.522851
    151 O21         5.1130    2.6710    3.4950 o         1 MOL     -0.543404
    152 C52         2.7200    1.8800    1.4580 c3        1 MOL      0.074386
    153 C53         1.8410    2.2500    0.2830 c3        1 MOL     -0.059743
    154 C54         0.4470    1.5350    0.4170 c         1 MOL      0.612113
    155 O22        -0.4890    2.0700   -0.2040 o         1 MOL     -0.702824
    156 O23         0.2510    0.5720    1.2140 o         1 MOL     -0.702824
    157 H67         4.2480    1.5810   -0.4620 hn        1 MOL      0.141397
    158 H68         3.9850    3.6100    1.6020 h1        1 MOL      0.137146
    159 H69         2.3260    2.1220    2.4520 hc        1 MOL      0.027367
    160 H70         2.9880    0.8230    1.3980 hc        1 MOL      0.027367
    161 H71         2.2670    1.8760   -0.6420 hc        1 MOL      0.041221
    162 H72         1.7760    3.3420    0.2720 hc        1 MOL      0.041221
    163 N14         5.7170    0.8750    2.2760 n         1 MOL     -0.060629
    164 C55         6.7360    0.3730    3.2020 c3        1 MOL     -0.358196
    165 H73         7.6080    1.0250    3.1690 h1        1 MOL      0.117290
    166 H74         6.3320    0.3570    4.2140 h1        1 MOL      0.117290
    167 H75         7.0270   -0.6360    2.9110 h1        1 MOL      0.117290
    168 H76         5.6280    0.3430    1.4200 hn        1 MOL      0.067391
    169 Ca1        -2.0700    0.0230   -0.1270 Ca        1 MOL      1.719954
    170 O24        -1.6660    0.2350    2.8480 oh        1 MOL     -0.938368
    171 H77        -1.6030    0.7700    3.6430 ho        1 MOL      0.441573
    172 H78        -0.7920    0.2610    2.4730 ho        1 MOL      0.441573
    173 O25        -3.9780   -0.8840    1.7760 oh        1 MOL     -0.938368
    174 H79        -4.7260   -0.9340    2.3800 ho        1 MOL      0.441573
    175 H80        -3.3530   -0.3050    2.2120 ho        1 MOL      0.441573
@<TRIPOS>BOND
     1    1    2 1   
     2    1    4 1   
     3    1    5 1   
     4    1    6 1   
     5    2    3 2   
     6    2    7 1   
     7    7    8 1   
     8    7   15 1   
     9    8    9 1   
    10    8   11 1   
    11    8   16 1   
    12    9   10 2   
    13    9   19 1   
    14   11   12 1   
    15   11   17 1   
    16   11   18 1   
    17   12   13 1   
    18   12   14 1   
    19   19   20 1   
    20   19   24 1   
    21   20   21 1   
    22   20   23 1   
    23   20   25 1   
    24   21   22 2   
    25   21   29 1   
    26   23   26 1   
    27   23   27 1   
    28   23   28 1   
    29   29   30 1   
    30   29   37 1   
    31   30   31 1   
    32   30   33 1   
    33   30   38 1   
    34   31   32 2   
    35   31   41 1   
    36   33   34 1   
    37   33   39 1   
    38   33   40 1   
    39   34   35 1   
    40   34   36 1   
    41   41   42 1   
    42   41   45 1   
    43   42   43 1   
    44   42   46 1   
    45   42   47 1   
    46   43   44 2   
    47   43   48 1   
    48   48   49 1   
    49   48   56 1   
    50   49   50 1   
    51   49   52 1   
    52   49   57 1   
    53   50   51 2   
    54   50   62 1   
    55   52   53 1   
    56   52   58 1   
    57   52   59 1   
    58   53   54 1   
    59   53   55 2   
    60   54   60 1   
    61   54   61 1   
    62   62   63 1   
    63   62   66 1   
    64   63   64 1   
    65   63   67 1   
    66   63   68 1   
    67   64   65 2   
    68   64   69 1   
    69   69   70 1   
    70   69   76 1   
    71   70   71 1   
    72   70   73 1   
    73   70   77 1   
    74   71   72 2   
    75   71   83 1   
    76   73   74 1   
    77   73   75 1   
    78   73   78 1   
    79   74   80 1   
    80   74   81 1   
    81   74   82 1   
    82   75   79 1   
    83   83   84 1   
    84   83   91 1   
    85   84   85 1   
    86   84   87 1   
    87   84   92 1   
    88   85   86 2   
    89   85  102 1   
    90   87   88 1   
    91   87   89 1   
    92   87   93 1   
    93   88   90 1   
    94   88   94 1   
    95   88   95 1   
    96   89   96 1   
    97   89   97 1   
    98   89   98 1   
    99   90   99 1   
   100   90  100 1   
   101   90  101 1   
   102  102  103 1   
   103  102  110 1   
   104  103  104 1   
   105  103  106 1   
   106  103  111 1   
   107  104  105 2   
   108  104  114 1   
   109  106  107 1   
   110  106  112 1   
   111  106  113 1   
   112  107  108 1   
   113  107  109 1   
   114  114  115 1   
   115  114  125 1   
   116  115  116 1   
   117  115  118 1   
   118  115  126 1   
   119  116  117 2   
   120  116  134 1   
   121  118  119 1   
   122  118  127 1   
   123  118  128 1   
   124  119  120 ar  
   125  119  121 ar  
   126  120  122 ar  
   127  120  129 1   
   128  121  123 ar  
   129  121  130 1   
   130  122  124 ar  
   131  122  131 1   
   132  123  124 ar  
   133  123  132 1   
   134  124  133 1   
   135  134  135 1   
   136  134  140 1   
   137  135  136 1   
   138  135  138 1   
   139  135  141 1   
   140  136  137 2   
   141  136  148 1   
   142  138  139 1   
   143  138  142 1   
   144  138  143 1   
   145  139  140 1   
   146  139  144 1   
   147  139  145 1   
   148  140  146 1   
   149  140  147 1   
   150  148  149 1   
   151  148  157 1   
   152  149  150 1   
   153  149  152 1   
   154  149  158 1   
   155  150  151 2   
   156  150  163 1   
   157  152  153 1   
   158  152  159 1   
   159  152  160 1   
   160  153  154 1   
   161  153  161 1   
   162  153  162 1   
   163  154  155 1   
   164  154  156 1   
   165  163  164 1   
   166  163  168 1   
   167  164  165 1   
   168  164  166 1   
   169  164  167 1   
   170  170  171 1   
   171  170  172 1   
   172  173  174 1   
   173  173  175 1   
@<TRIPOS>SUBSTRUCTURE
     1 MOL         1 TEMP              0 ****  ****    0 ROOT
