@<TRIPOS>MOLECULE
MOL
  189   185     1     0     0
SMALL
resp


@<TRIPOS>ATOM
      1 C1         -0.0770    3.6850   -4.4710 c3        1 MOL     -0.027341
      2 C2          0.5280    3.0580   -3.1550 c         1 MOL      0.439868
      3 O1         -0.0520    3.3060   -2.0390 o         1 MOL     -0.552984
      4 H1         -1.1580    3.5490   -4.4730 hc        1 MOL      0.013873
      5 H2          0.1550    4.7490   -4.5060 hc        1 MOL      0.013873
      6 H3          0.3530    3.1880   -5.3410 hc        1 MOL      0.013873
      7 N1          1.7340    2.4120   -3.2530 n         1 MOL     -0.471953
      8 C3          2.5160    1.9920   -2.1120 c3        1 MOL      0.230183
      9 C4          3.2370    3.0510   -1.2750 c         1 MOL      0.364032
     10 O2          4.5030    3.2000   -1.3010 o         1 MOL     -0.462411
     11 C5          3.4400    0.8120   -2.5300 c3        1 MOL     -0.231056
     12 C6          4.1250    0.1390   -1.3360 c         1 MOL      0.589176
     13 O3          5.1750   -0.5600   -1.4530 o         1 MOL     -0.596268
     14 O4          3.5650    0.1820   -0.1980 o         1 MOL     -0.596268
     15 H4          2.1360    2.5640   -4.1740 hn        1 MOL      0.307927
     16 H5          1.7920    1.5770   -1.4080 h1        1 MOL      0.015886
     17 H6          4.1590    1.1460   -3.2780 hc        1 MOL      0.063120
     18 H7          2.7340    0.1690   -3.0630 hc        1 MOL      0.063120
     19 N2          2.4480    3.8680   -0.5090 n         1 MOL     -0.365009
     20 C7          2.9310    5.0260    0.1780 c3        1 MOL      0.034262
     21 C8          3.7970    4.7520    1.3890 c         1 MOL      0.460433
     22 O5          4.3940    5.7450    1.8220 o         1 MOL     -0.571751
     23 C9          1.7140    5.8960    0.4450 c3        1 MOL     -0.160959
     24 C10         1.0890    6.4560   -0.9250 c3        1 MOL      0.144377
     25 C11         0.3820    7.8120   -0.7490 c3        1 MOL     -0.025819
     26 C12        -0.5420    8.0270   -1.9540 c3        1 MOL     -0.087459
     27 N3         -1.7370    8.8110   -1.5620 n4        1 MOL     -0.243603
     28 H8          1.4500    3.7290   -0.4380 hn        1 MOL      0.326158
     29 H9          3.5960    5.5910   -0.4780 h1        1 MOL      0.085792
     30 H10         2.0360    6.7760    0.9920 hc        1 MOL      0.068049
     31 H11         0.9590    5.3070    0.9740 hc        1 MOL      0.068049
     32 H12         0.4080    5.7440   -1.3900 hc        1 MOL     -0.009775
     33 H13         1.8970    6.6320   -1.6390 hc        1 MOL     -0.009775
     34 H14         1.1180    8.5610   -0.4660 hc        1 MOL      0.025974
     35 H15        -0.3020    7.7610    0.1020 hc        1 MOL      0.025974
     36 H16        -0.9530    7.1210   -2.3940 hx        1 MOL      0.122449
     37 H17        -0.0450    8.7160   -2.6430 hx        1 MOL      0.122449
     38 H18        -1.5100    9.7360   -1.2340 hn        1 MOL      0.297619
     39 H19        -2.4600    8.7970   -2.2660 hn        1 MOL      0.297619
     40 H20        -2.2280    8.4030   -0.7840 hn        1 MOL      0.297619
     41 N4          3.9140    3.5170    1.9320 n         1 MOL     -0.253017
     42 C13         4.8300    3.1310    3.0510 c3        1 MOL      0.060040
     43 C14         6.0560    2.2750    2.5410 c         1 MOL      0.381513
     44 O6          6.9970    2.0430    3.2540 o         1 MOL     -0.480382
     45 C15         4.1070    2.4240    4.1850 c3        1 MOL     -0.323927
     46 C16         3.0650    1.4360    3.6430 c         1 MOL      0.802534
     47 O7          3.3140    0.6880    2.6810 o         1 MOL     -0.710119
     48 O8          1.9240    1.5530    4.1520 o         1 MOL     -0.710119
     49 H21         3.2760    2.8360    1.5610 hn        1 MOL      0.232964
     50 H22         5.2840    4.0170    3.4920 h1        1 MOL      0.100805
     51 H23         3.7130    3.1900    4.8530 hc        1 MOL      0.084844
     52 H24         4.7970    1.8500    4.8170 hc        1 MOL      0.084844
     53 N5          6.1010    2.1260    1.1800 n         1 MOL     -0.222622
     54 C17         7.3050    1.4420    0.5410 c3        1 MOL     -0.001042
     55 C18         7.6630   -0.0160    0.8330 c         1 MOL      0.390307
     56 O9          8.8330   -0.3130    1.1510 o         1 MOL     -0.562533
     57 H25         5.3650    2.5320    0.6110 hn        1 MOL      0.143034
     58 H26         8.1980    2.0470    0.6990 h1        1 MOL      0.061695
     59 H27         7.0610    1.5430   -0.5060 h1        1 MOL      0.061695
     60 N6          6.7080   -0.9400    0.9690 n         1 MOL     -0.006047
     61 C19         6.8700   -2.2800    1.4850 c3        1 MOL     -0.030646
     62 C20         6.7580   -3.3410    0.3960 c         1 MOL      0.338910
     63 O10         6.9090   -4.5570    0.6850 o         1 MOL     -0.519059
     64 C21         5.8480   -2.5880    2.6790 c3        1 MOL     -0.245596
     65 C22         4.3870   -2.6180    2.1920 c         1 MOL      0.831285
     66 O11         3.5470   -2.2780    3.0150 o         1 MOL     -0.722309
     67 O12         3.9310   -2.9520    1.0420 o         1 MOL     -0.722309
     68 H28         5.8250   -0.6010    0.6110 hn        1 MOL      0.046089
     69 H29         7.8820   -2.2910    1.8920 h1        1 MOL      0.124173
     70 H30         5.8870   -1.7330    3.3560 hc        1 MOL      0.089067
     71 H31         6.1190   -3.5110    3.1980 hc        1 MOL      0.089067
     72 N7          6.4640   -2.9150   -0.8190 n         1 MOL     -0.152993
     73 C23         6.3120   -3.7200   -2.0260 c3        1 MOL     -0.179428
     74 C24         4.9750   -4.3740   -2.3270 c         1 MOL      0.529619
     75 O13         4.8930   -5.3300   -3.1070 o         1 MOL     -0.547562
     76 H32         6.0840   -1.9870   -0.8300 hn        1 MOL      0.126155
     77 H33         7.0840   -4.4860   -1.9480 h1        1 MOL      0.106866
     78 H34         6.5420   -3.1030   -2.8950 h1        1 MOL      0.106866
     79 N8          3.8660   -3.8730   -1.6680 n         1 MOL     -0.219747
     80 C25         2.4860   -4.3630   -1.7150 c3        1 MOL     -0.347033
     81 C26         1.4250   -3.3100   -1.5740 c         1 MOL      0.822649
     82 O14         1.6090   -2.4000   -0.8280 o         1 MOL     -0.659829
     83 C27         2.2300   -5.4720   -0.6860 c3        1 MOL      0.637612
     84 C28         2.9360   -6.7910   -0.8130 c3        1 MOL     -0.465183
     85 O15         2.4660   -4.9720    0.5790 oh        1 MOL     -0.662319
     86 H35         3.9730   -3.0270   -1.1250 hn        1 MOL      0.241600
     87 H36         2.2020   -4.8870   -2.6290 h1        1 MOL      0.088483
     88 H37         1.1520   -5.6170   -0.7290 h1        1 MOL     -0.077384
     89 H38         2.9930   -4.1750    0.5220 ho        1 MOL      0.418468
     90 H39         4.0220   -6.6690   -0.8510 hc        1 MOL      0.108982
     91 H40         2.4680   -7.5080   -0.1380 hc        1 MOL      0.108982
     92 H41         2.6730   -7.0400   -1.8420 hc        1 MOL      0.108982
     93 N9          0.2230   -3.4360   -2.2030 n         1 MOL     -0.749104
     94 C29        -0.8210   -2.4740   -2.3300 c3        1 MOL      0.271586
     95 C30        -2.0310   -3.1150   -1.7360 c         1 MOL      0.546413
     96 O16        -2.5520   -4.0740   -2.3070 o         1 MOL     -0.560867
     97 C31        -1.1580   -1.9880   -3.7640 c3        1 MOL      0.103520
     98 C32         0.0290   -0.9870   -4.1620 c3        1 MOL     -0.043132
     99 C33        -2.4370   -1.1110   -3.7290 c3        1 MOL     -0.370749
    100 C34         0.1160   -0.6930   -5.6120 c3        1 MOL     -0.154687
    101 H42         0.1840   -4.1500   -2.9150 hn        1 MOL      0.306562
    102 H43        -0.5480   -1.6050   -1.7360 h1        1 MOL     -0.005418
    103 H44        -1.3120   -2.8870   -4.3640 hc        1 MOL      0.023930
    104 H45         0.9770   -1.4450   -3.8990 hc        1 MOL      0.049421
    105 H46        -0.0200   -0.0470   -3.6190 hc        1 MOL      0.049421
    106 H47        -2.5430   -0.6180   -4.7000 hc        1 MOL      0.070498
    107 H48        -3.2760   -1.7670   -3.4730 hc        1 MOL      0.070498
    108 H49        -2.3430   -0.3150   -2.9830 hc        1 MOL      0.070498
    109 H50        -0.8320   -0.2850   -5.9680 hc        1 MOL      0.034365
    110 H51         0.9950   -0.1030   -5.8720 hc        1 MOL      0.034365
    111 H52         0.2120   -1.6480   -6.1420 hc        1 MOL      0.034365
    112 N10        -2.5270   -2.4440   -0.6750 n         1 MOL     -0.300097
    113 C35        -3.7990   -2.7030    0.0150 c3        1 MOL     -0.063376
    114 C36        -4.9960   -2.0990   -0.6240 c         1 MOL      0.401243
    115 O17        -4.9280   -1.1330   -1.4050 o         1 MOL     -0.321072
    116 C37        -3.7550   -2.2460    1.4320 c3        1 MOL      0.106680
    117 C38        -2.5560   -2.6970    2.3140 c3        1 MOL     -0.561920
    118 O18        -3.8240   -0.8890    1.5150 oh        1 MOL     -0.186186
    119 H53        -1.9750   -1.7600   -0.1760 hn        1 MOL      0.265959
    120 H54        -3.8740   -3.7830    0.0860 h1        1 MOL      0.084980
    121 H55        -4.6900   -2.6760    1.8060 h1        1 MOL     -0.028361
    122 H56        -3.5220   -0.7460    2.4130 ho        1 MOL      0.313896
    123 H57        -2.8960   -2.5780    3.3410 hc        1 MOL      0.160193
    124 H58        -2.3860   -3.7550    2.1490 hc        1 MOL      0.160193
    125 H59        -1.6920   -2.0620    2.0730 hc        1 MOL      0.160193
    126 N11        -6.1930   -2.5420   -0.2480 n         1 MOL     -0.301149
    127 C39        -7.4430   -2.0360   -0.7950 c3        1 MOL     -0.117127
    128 C40        -7.6370   -0.5320   -0.4380 c         1 MOL      0.253332
    129 O19        -8.3470    0.1730   -1.1910 o         1 MOL     -0.467655
    130 C41        -8.7630   -2.7410   -0.2640 c3        1 MOL      0.327705
    131 C42        -9.0130   -4.1510   -0.7990 c3        1 MOL     -0.473883
    132 O20        -8.5870   -2.8030    1.1470 oh        1 MOL     -0.621701
    133 H60        -6.1870   -3.3710    0.3420 hn        1 MOL      0.269947
    134 H61        -7.4280   -2.0980   -1.8830 h1        1 MOL      0.143470
    135 H62        -9.6350   -2.1460   -0.5150 h1        1 MOL      0.057014
    136 H63        -9.4230   -2.8780    1.6180 ho        1 MOL      0.359552
    137 H64        -9.9080   -4.6090   -0.3800 hc        1 MOL      0.137766
    138 H65        -9.0970   -4.2220   -1.8870 hc        1 MOL      0.137766
    139 H66        -8.2230   -4.8070   -0.4190 hc        1 MOL      0.137766
    140 N12        -7.0420   -0.1200    0.6860 n         1 MOL     -0.088906
    141 C43        -6.8750    1.2580    1.2330 c3        1 MOL      0.016208
    142 C44        -5.8930    2.1820    0.4400 c         1 MOL      0.399140
    143 O21        -6.3300    3.2320    0.0010 o         1 MOL     -0.488685
    144 C45        -6.4730    1.0820    2.7230 c3        1 MOL     -0.022819
    145 C46        -7.7340    0.6930    3.4400 c3        1 MOL     -0.035879
    146 C47        -7.5470    0.4890    4.9470 c3        1 MOL      0.105217
    147 C48        -8.7040   -0.3060    5.6920 c3        1 MOL     -0.163129
    148 N13        -8.9290   -1.6840    5.0290 n4        1 MOL     -0.271428
    149 H67        -6.4110   -0.7900    1.1050 hn        1 MOL      0.142151
    150 H68        -7.8560    1.7300    1.1860 h1        1 MOL      0.066030
    151 H69        -6.1480    2.0450    3.1130 hc        1 MOL      0.004501
    152 H70        -5.6930    0.3520    2.9440 hc        1 MOL      0.004501
    153 H71        -8.2030   -0.2290    3.0770 hc        1 MOL      0.015519
    154 H72        -8.3970    1.5520    3.3090 hc        1 MOL      0.015519
    155 H73        -7.4290    1.3980    5.5400 hc        1 MOL      0.023139
    156 H74        -6.6480   -0.1260    5.0360 hc        1 MOL      0.023139
    157 H75        -9.6200    0.2700    5.6020 hx        1 MOL      0.143213
    158 H76        -8.5420   -0.4950    6.7490 hx        1 MOL      0.143213
    159 H77        -9.5080   -1.7270    4.1960 hn        1 MOL      0.254143
    160 H78        -8.0370   -2.1300    4.8620 hn        1 MOL      0.254143
    161 H79        -9.4680   -2.3110    5.6090 hn        1 MOL      0.254143
    162 N14        -4.6810    1.6520    0.1130 n         1 MOL     -0.104267
    163 C49        -3.6810    2.2620   -0.7970 c3        1 MOL     -0.117233
    164 C50        -4.1900    2.4830   -2.2110 c         1 MOL      0.373007
    165 O22        -4.0330    3.6100   -2.7760 o         1 MOL     -0.544706
    166 C51        -2.4770    1.4000   -0.7470 c3        1 MOL      0.129545
    167 C52        -1.6560    1.6430    0.4880 c3        1 MOL     -0.132276
    168 C53        -0.3400    0.8410    0.5130 c         1 MOL      0.728742
    169 O23        -0.3570   -0.3740    0.3770 o         1 MOL     -0.727045
    170 O24         0.6900    1.3190    0.9350 o         1 MOL     -0.727045
    171 H80        -4.4550    0.7190    0.4330 hn        1 MOL     -0.030431
    172 H81        -3.4090    3.2680   -0.4950 h1        1 MOL      0.099120
    173 H82        -1.8950    1.5640   -1.6650 hc        1 MOL      0.040022
    174 H83        -2.8000    0.3690   -0.8340 hc        1 MOL      0.040022
    175 H84        -2.3280    1.3630    1.2940 hc        1 MOL     -0.021663
    176 H85        -1.4040    2.6990    0.5830 hc        1 MOL     -0.021663
    177 N15        -4.9250    1.4800   -2.7520 n         1 MOL     -0.020942
    178 C54        -5.6530    1.5090   -4.0460 c3        1 MOL     -0.307006
    179 H86        -6.7200    1.3780   -3.8650 h1        1 MOL      0.114933
    180 H87        -5.4840    2.4660   -4.5370 h1        1 MOL      0.114933
    181 H88        -5.2920    0.7030   -4.6850 h1        1 MOL      0.114933
    182 H89        -4.9560    0.6390   -2.1990 hn        1 MOL      0.138871
    183 Ca1         1.8870   -1.1030    1.4120 Ca        1 MOL      1.765377
    184 O25         0.2570   -0.5180    3.4760 oh        1 MOL     -0.831021
    185 H90        -0.6820   -0.3060    3.4270 ho        1 MOL      0.390220
    186 H91         0.6450    0.2260    3.9440 ho        1 MOL      0.390220
    187 O26         0.6700   -3.3980    2.0600 oh        1 MOL     -0.831021
    188 H92         0.9900   -4.2730    1.8450 ho        1 MOL      0.390220
    189 H93        -0.0330   -3.5480    2.6840 ho        1 MOL      0.390220
@<TRIPOS>BOND
     1    1    2 1   
     2    1    4 1   
     3    1    5 1   
     4    1    6 1   
     5    2    3 2   
     6    2    7 1   
     7    7    8 1   
     8    7   15 1   
     9    8    9 1   
    10    8   11 1   
    11    8   16 1   
    12    9   10 2   
    13    9   19 1   
    14   11   12 1   
    15   11   17 1   
    16   11   18 1   
    17   12   13 1   
    18   12   14 1   
    19   19   20 1   
    20   19   28 1   
    21   20   21 1   
    22   20   23 1   
    23   20   29 1   
    24   21   22 2   
    25   21   41 1   
    26   23   24 1   
    27   23   30 1   
    28   23   31 1   
    29   24   25 1   
    30   24   32 1   
    31   24   33 1   
    32   25   26 1   
    33   25   34 1   
    34   25   35 1   
    35   26   27 1   
    36   26   36 1   
    37   26   37 1   
    38   27   38 1   
    39   27   39 1   
    40   27   40 1   
    41   41   42 1   
    42   41   49 1   
    43   42   43 1   
    44   42   45 1   
    45   42   50 1   
    46   43   44 2   
    47   43   53 1   
    48   45   46 1   
    49   45   51 1   
    50   45   52 1   
    51   46   47 1   
    52   46   48 1   
    53   53   54 1   
    54   53   57 1   
    55   54   55 1   
    56   54   58 1   
    57   54   59 1   
    58   55   56 2   
    59   55   60 1   
    60   60   61 1   
    61   60   68 1   
    62   61   62 1   
    63   61   64 1   
    64   61   69 1   
    65   62   63 2   
    66   62   72 1   
    67   64   65 1   
    68   64   70 1   
    69   64   71 1   
    70   65   66 1   
    71   65   67 1   
    72   72   73 1   
    73   72   76 1   
    74   73   74 1   
    75   73   77 1   
    76   73   78 1   
    77   74   75 2   
    78   74   79 1   
    79   79   80 1   
    80   79   86 1   
    81   80   81 1   
    82   80   83 1   
    83   80   87 1   
    84   81   82 2   
    85   81   93 1   
    86   83   84 1   
    87   83   85 1   
    88   83   88 1   
    89   84   90 1   
    90   84   91 1   
    91   84   92 1   
    92   85   89 1   
    93   93   94 1   
    94   93  101 1   
    95   94   95 1   
    96   94   97 1   
    97   94  102 1   
    98   95   96 2   
    99   95  112 1   
   100   97   98 1   
   101   97   99 1   
   102   97  103 1   
   103   98  100 1   
   104   98  104 1   
   105   98  105 1   
   106   99  106 1   
   107   99  107 1   
   108   99  108 1   
   109  100  109 1   
   110  100  110 1   
   111  100  111 1   
   112  112  113 1   
   113  112  119 1   
   114  113  114 1   
   115  113  116 1   
   116  113  120 1   
   117  114  115 2   
   118  114  126 1   
   119  116  117 1   
   120  116  118 1   
   121  116  121 1   
   122  117  123 1   
   123  117  124 1   
   124  117  125 1   
   125  118  122 1   
   126  126  127 1   
   127  126  133 1   
   128  127  128 1   
   129  127  130 1   
   130  127  134 1   
   131  128  129 2   
   132  128  140 1   
   133  130  131 1   
   134  130  132 1   
   135  130  135 1   
   136  131  137 1   
   137  131  138 1   
   138  131  139 1   
   139  132  136 1   
   140  140  141 1   
   141  140  149 1   
   142  141  142 1   
   143  141  144 1   
   144  141  150 1   
   145  142  143 2   
   146  142  162 1   
   147  144  145 1   
   148  144  151 1   
   149  144  152 1   
   150  145  146 1   
   151  145  153 1   
   152  145  154 1   
   153  146  147 1   
   154  146  155 1   
   155  146  156 1   
   156  147  148 1   
   157  147  157 1   
   158  147  158 1   
   159  148  159 1   
   160  148  160 1   
   161  148  161 1   
   162  162  163 1   
   163  162  171 1   
   164  163  164 1   
   165  163  166 1   
   166  163  172 1   
   167  164  165 2   
   168  164  177 1   
   169  166  167 1   
   170  166  173 1   
   171  166  174 1   
   172  167  168 1   
   173  167  175 1   
   174  167  176 1   
   175  168  169 1   
   176  168  170 1   
   177  177  178 1   
   178  177  182 1   
   179  178  179 1   
   180  178  180 1   
   181  178  181 1   
   182  184  185 1   
   183  184  186 1   
   184  187  188 1   
   185  187  189 1   
@<TRIPOS>SUBSTRUCTURE
     1 MOL         1 TEMP              0 ****  ****    0 ROOT
