@<TRIPOS>MOLECULE
MOL
  189   185     1     0     0
SMALL
resp


@<TRIPOS>ATOM
      1 C1         -1.6030    2.1940    6.3890 c3        1 MOL     -0.272249
      2 C2         -1.5680    1.6490    4.9610 c         1 MOL      0.782093
      3 O1         -0.5580    1.7920    4.3050 o         1 MOL     -0.639387
      4 H1         -1.9170    3.2380    6.3700 hc        1 MOL      0.063450
      5 H2         -2.3090    1.6140    6.9830 hc        1 MOL      0.063450
      6 H3         -0.6090    2.1220    6.8300 hc        1 MOL      0.063450
      7 N1         -2.7010    1.1960    4.4110 n         1 MOL     -0.643738
      8 C3         -2.9220    1.1460    2.9880 c3        1 MOL      0.041251
      9 C4         -3.2460    2.5260    2.4030 c         1 MOL      0.495336
     10 O2         -4.2360    3.1750    2.7670 o         1 MOL     -0.531949
     11 C5         -4.0710    0.1140    2.7470 c3        1 MOL     -0.134230
     12 C6         -4.4400    0.1080    1.2770 c         1 MOL      0.595657
     13 O3         -5.6500    0.0610    1.0140 o         1 MOL     -0.584339
     14 O4         -3.5620    0.3760    0.4560 o         1 MOL     -0.584339
     15 H4         -3.5190    1.1100    5.0030 hn        1 MOL      0.337835
     16 H5         -1.9820    0.7600    2.6140 h1        1 MOL      0.086760
     17 H6         -4.9800    0.1430    3.3540 hc        1 MOL      0.048378
     18 H7         -3.6520   -0.8670    2.9500 hc        1 MOL      0.048378
     19 N2         -2.3390    3.0230    1.5760 n         1 MOL     -0.214268
     20 C7         -2.4110    4.3620    1.0190 c3        1 MOL      0.003127
     21 C8         -3.4130    4.5830   -0.1200 c         1 MOL      0.504548
     22 O5         -4.1570    5.5430   -0.1540 o         1 MOL     -0.601307
     23 C9         -1.0540    4.8660    0.6070 c3        1 MOL     -0.005220
     24 C10        -0.2160    5.2660    1.8880 c3        1 MOL     -0.054290
     25 C11         1.1050    5.8370    1.5530 c3        1 MOL     -0.117491
     26 C12         1.2000    7.2220    0.9160 c3        1 MOL     -0.066166
     27 N3          0.4530    8.2060    1.6530 n4        1 MOL     -0.271434
     28 H8         -1.6210    2.3740    1.2930 hn        1 MOL      0.143615
     29 H9         -2.7210    5.0840    1.7670 h1        1 MOL      0.033967
     30 H10        -1.2740    5.7030   -0.0590 hc        1 MOL      0.011434
     31 H11        -0.4210    4.1810    0.0400 hc        1 MOL      0.011434
     32 H12        -0.0080    4.3410    2.4380 hc        1 MOL      0.047334
     33 H13        -0.7400    6.0170    2.4670 hc        1 MOL      0.047334
     34 H14         1.6900    5.1700    0.9320 hc        1 MOL      0.071349
     35 H15         1.6870    5.8630    2.4810 hc        1 MOL      0.071349
     36 H16         0.8220    7.2700   -0.0950 hx        1 MOL      0.113695
     37 H17         2.2470    7.5150    0.8550 hx        1 MOL      0.113695
     38 H18        -0.5110    7.9310    1.7520 hn        1 MOL      0.306488
     39 H19         0.6950    8.1740    2.6390 hn        1 MOL      0.306488
     40 H20         0.6240    9.1370    1.3090 hn        1 MOL      0.306488
     41 N4         -3.6110    3.6120   -0.9400 n         1 MOL     -0.132251
     42 C13        -4.0050    3.7840   -2.3270 c3        1 MOL      0.035054
     43 C14        -5.1640    2.8820   -2.7050 c         1 MOL      0.448538
     44 O6         -5.3780    2.6110   -3.8540 o         1 MOL     -0.487491
     45 C15        -2.8540    3.7210   -3.3700 c3        1 MOL     -0.192174
     46 C16        -2.0760    2.4260   -3.3740 c         1 MOL      0.862913
     47 O7         -2.4380    1.3960   -2.7370 o         1 MOL     -0.753844
     48 O8         -0.9930    2.4220   -4.0540 o         1 MOL     -0.753844
     49 H21        -3.0770    2.7640   -0.7510 hn        1 MOL      0.020259
     50 H22        -4.4290    4.7940   -2.4060 h1        1 MOL      0.073803
     51 H23        -2.1160    4.4930   -3.1290 hc        1 MOL      0.031630
     52 H24        -3.2840    3.8730   -4.3530 hc        1 MOL      0.031630
     53 N5         -5.9030    2.3600   -1.6910 n         1 MOL     -0.364370
     54 C17        -7.2560    1.7070   -1.8260 c3        1 MOL     -0.371032
     55 C18        -7.2980    0.2120   -2.2740 c         1 MOL      0.536244
     56 O9         -8.3420   -0.1860   -2.8340 o         1 MOL     -0.587709
     57 H25        -5.5500    2.5790   -0.7700 hn        1 MOL      0.289123
     58 H26        -7.7990    2.2420   -2.5990 h1        1 MOL      0.180917
     59 H27        -7.6720    1.7700   -0.8160 h1        1 MOL      0.180917
     60 N6         -6.2700   -0.5780   -2.0490 n         1 MOL     -0.078748
     61 C19        -6.2480   -2.0390   -2.3910 c3        1 MOL     -0.050923
     62 C20        -6.2950   -2.9950   -1.1930 c         1 MOL      0.468889
     63 O10        -6.2750   -4.2070   -1.2800 o         1 MOL     -0.552942
     64 C21        -4.9980   -2.3970   -3.2730 c3        1 MOL     -0.190428
     65 C22        -3.6620   -2.0170   -2.6160 c         1 MOL      0.683815
     66 O11        -3.5190   -2.3300   -1.4150 o         1 MOL     -0.652718
     67 O12        -2.8170   -1.4680   -3.3210 o         1 MOL     -0.652718
     68 H28        -5.4300   -0.2000   -1.6350 hn        1 MOL      0.150392
     69 H29        -7.1730   -2.2880   -2.8940 h1        1 MOL      0.111415
     70 H30        -5.1040   -1.6430   -4.0500 hc        1 MOL      0.055730
     71 H31        -5.0460   -3.3990   -3.7060 hc        1 MOL      0.055730
     72 N7         -6.2290   -2.4210    0.0110 n         1 MOL     -0.254830
     73 C23        -6.2970   -3.1680    1.3040 c3        1 MOL     -0.041211
     74 C24        -5.0500   -4.0090    1.6680 c         1 MOL      0.414158
     75 O13        -5.0190   -4.8100    2.5680 o         1 MOL     -0.565526
     76 H32        -6.0000   -1.4420   -0.0440 hn        1 MOL      0.082907
     77 H33        -7.1300   -3.8730    1.3740 h1        1 MOL      0.076811
     78 H34        -6.4470   -2.4500    2.1150 h1        1 MOL      0.076811
     79 N8         -3.9520   -3.7000    1.0240 n         1 MOL      0.094666
     80 C25        -2.6020   -4.2350    1.2430 c3        1 MOL     -0.340876
     81 C26        -1.4700   -3.2070    1.2640 c         1 MOL      0.781119
     82 O14        -1.6690   -2.0490    0.8940 o         1 MOL     -0.736947
     83 C27        -2.3480   -5.2940    0.0840 c3        1 MOL      0.467281
     84 C28        -3.5230   -6.3590    0.0770 c3        1 MOL     -0.397907
     85 O15        -2.2990   -4.7340   -1.1780 oh        1 MOL     -0.642232
     86 H35        -4.0140   -3.0370    0.2710 hn        1 MOL      0.039947
     87 H36        -2.5770   -4.8020    2.1750 h1        1 MOL      0.100018
     88 H37        -1.4040   -5.8210    0.2780 h1        1 MOL     -0.013834
     89 H38        -2.9840   -4.0640   -1.2760 ho        1 MOL      0.429502
     90 H39        -3.1260   -7.2030   -0.4880 hc        1 MOL      0.101139
     91 H40        -3.6880   -6.6680    1.1130 hc        1 MOL      0.101139
     92 H41        -4.3250   -5.9180   -0.5040 hc        1 MOL      0.101139
     93 N9         -0.2560   -3.6080    1.5740 n         1 MOL     -0.652211
     94 C29         0.9130   -2.6990    1.9350 c3        1 MOL      0.040758
     95 C30         2.1440   -3.1110    0.9870 c         1 MOL      0.555723
     96 O16         2.7560   -4.1810    1.1990 o         1 MOL     -0.555838
     97 C31         1.3070   -2.8080    3.3610 c3        1 MOL      0.078074
     98 C32         0.1940   -2.1930    4.2900 c3        1 MOL      0.125566
     99 C33         2.5920   -2.1980    3.6820 c3        1 MOL     -0.295079
    100 C34         0.2340   -2.6300    5.7930 c3        1 MOL     -0.233624
    101 H42        -0.1220   -4.5550    1.9170 hn        1 MOL      0.318382
    102 H43         0.6700   -1.6600    1.6920 h1        1 MOL      0.086449
    103 H44         1.3250   -3.8630    3.6450 hc        1 MOL      0.029470
    104 H45        -0.8140   -2.4930    4.0000 hc        1 MOL      0.009335
    105 H46         0.2070   -1.1030    4.2440 hc        1 MOL      0.009335
    106 H47         3.3340   -2.2930    2.8870 hc        1 MOL      0.064233
    107 H48         2.4750   -1.1190    3.6760 hc        1 MOL      0.064233
    108 H49         3.0160   -2.6070    4.5940 hc        1 MOL      0.064233
    109 H50         0.0140   -3.6950    5.7560 hc        1 MOL      0.050297
    110 H51         1.2310   -2.5780    6.2540 hc        1 MOL      0.050297
    111 H52        -0.5440   -2.0440    6.2700 hc        1 MOL      0.050297
    112 N10         2.4420   -2.2830   -0.0090 n         1 MOL     -0.249944
    113 C35         3.6000   -2.4130   -0.8530 c3        1 MOL     -0.045376
    114 C36         4.9050   -2.2060    0.0260 c         1 MOL      0.133216
    115 O17         4.8320   -1.4430    0.9610 o         1 MOL     -0.134767
    116 C37         3.6260   -1.5920   -2.1330 c3        1 MOL      0.205070
    117 C38         2.7270   -2.1480   -3.2580 c3        1 MOL     -0.618121
    118 O18         3.1950   -0.2310   -1.7940 oh        1 MOL     -0.569869
    119 H53         1.9660   -1.3940   -0.1200 hn        1 MOL      0.111856
    120 H54         3.6160   -3.4770   -1.1230 h1        1 MOL      0.090227
    121 H55         4.6600   -1.5490   -2.4830 h1        1 MOL      0.090405
    122 H56         2.2500   -0.3340   -1.6660 ho        1 MOL      0.374280
    123 H57         2.7200   -1.3690   -4.0240 hc        1 MOL      0.177875
    124 H58         3.1160   -3.1280   -3.4850 hc        1 MOL      0.177875
    125 H59         1.7170   -2.2900   -2.8720 hc        1 MOL      0.177875
    126 N11         6.0860   -2.6770   -0.3810 n         1 MOL     -0.151280
    127 C39         7.3640   -2.1200    0.0470 c3        1 MOL     -0.245645
    128 C40         7.3790   -0.5870    0.1570 c         1 MOL      0.352032
    129 O19         7.8420   -0.0560    1.1720 o         1 MOL     -0.466123
    130 C41         8.4270   -2.5940   -0.9140 c3        1 MOL      0.391690
    131 C42         8.6890   -4.0690   -0.8620 c3        1 MOL     -0.507075
    132 O20         8.0940   -2.1500   -2.2440 oh        1 MOL     -0.706016
    133 H60         6.1760   -3.4140   -1.0740 hn        1 MOL      0.238897
    134 H61         7.6450   -2.5160    1.0220 h1        1 MOL      0.157030
    135 H62         9.4170   -2.2050   -0.6690 h1        1 MOL      0.065396
    136 H63         8.5290   -2.6820   -2.9240 ho        1 MOL      0.430688
    137 H64         9.7290   -4.1040   -1.1650 hc        1 MOL      0.140717
    138 H65         8.5770   -4.4020    0.1620 hc        1 MOL      0.140717
    139 H66         8.0420   -4.6840   -1.4990 hc        1 MOL      0.140717
    140 N12         6.8510    0.1730   -0.8300 n         1 MOL     -0.080277
    141 C43         6.5900    1.5720   -0.8270 c3        1 MOL     -0.046631
    142 C44         5.7100    2.0970    0.2760 c         1 MOL      0.378274
    143 O21         5.9620    3.2260    0.6660 o         1 MOL     -0.547118
    144 C45         6.0120    1.9020   -2.2360 c3        1 MOL     -0.049225
    145 C46         6.7400    1.2070   -3.4380 c3        1 MOL     -0.015619
    146 C47         6.1020    1.7600   -4.7290 c3        1 MOL      0.025168
    147 C48         6.5210    0.9000   -5.9250 c3        1 MOL      0.057114
    148 N13         5.5500    1.0610   -7.0390 n4        1 MOL     -0.383912
    149 H67         6.6270   -0.3280   -1.6790 hn        1 MOL      0.033838
    150 H68         7.5790    2.0280   -0.7530 h1        1 MOL      0.084012
    151 H69         6.1720    2.9680   -2.3890 hc        1 MOL      0.037744
    152 H70         4.9330    1.7110   -2.1800 hc        1 MOL      0.037744
    153 H71         6.5940    0.1290   -3.4630 hc        1 MOL      0.042731
    154 H72         7.7930    1.4470   -3.5490 hc        1 MOL      0.042731
    155 H73         6.3980    2.7820   -4.9710 hc        1 MOL      0.025273
    156 H74         5.0280    1.8630   -4.6180 hc        1 MOL      0.025273
    157 H75         6.5650   -0.1450   -5.6270 hx        1 MOL      0.073975
    158 H76         7.5360    1.0940   -6.2800 hx        1 MOL      0.073975
    159 H77         4.5870    1.0810   -6.7470 hn        1 MOL      0.335239
    160 H78         5.7190    1.9200   -7.5540 hn        1 MOL      0.335239
    161 H79         5.6770    0.3430   -7.7350 hn        1 MOL      0.335239
    162 N14         4.7970    1.3140    0.8810 n         1 MOL     -0.015460
    163 C49         3.8550    1.7300    1.9690 c3        1 MOL     -0.272113
    164 C50         4.5210    1.3620    3.3290 c         1 MOL      0.524739
    165 O22         3.9900    1.7620    4.3400 o         1 MOL     -0.520645
    166 C51         2.4400    1.2520    1.7080 c3        1 MOL      0.098740
    167 C52         1.7960    1.8980    0.4500 c3        1 MOL     -0.036017
    168 C53         0.6130    1.1950   -0.1170 c         1 MOL      0.586502
    169 O23         0.7410   -0.0410   -0.4760 o         1 MOL     -0.603611
    170 O24        -0.5010    1.7740   -0.1260 o         1 MOL     -0.603611
    171 H80         4.8750    0.3640    0.5670 hn        1 MOL      0.216375
    172 H81         3.7590    2.8210    1.9860 h1        1 MOL      0.113886
    173 H82         1.7680    1.3270    2.5600 hc        1 MOL      0.050759
    174 H83         2.4690    0.1910    1.4940 hc        1 MOL      0.050759
    175 H84         2.5780    2.1380   -0.2730 hc        1 MOL      0.015650
    176 H85         1.4780    2.9060    0.6940 hc        1 MOL      0.015650
    177 N15         5.5430    0.4790    3.3720 n         1 MOL     -0.299655
    178 C54         5.9040   -0.4820    4.5140 c3        1 MOL     -0.180433
    179 H86         6.2830   -1.4140    4.0960 h1        1 MOL      0.103952
    180 H87         6.6700   -0.0280    5.1420 h1        1 MOL      0.103952
    181 H88         5.0170   -0.6860    5.1130 h1        1 MOL      0.103952
    182 H89         5.7640    0.1410    2.4480 hn        1 MOL      0.109042
    183 Ca1        -1.6700   -0.4940   -1.1230 Ca        1 MOL      1.707357
    184 O25        -0.6490   -2.8510   -1.9050 oh        1 MOL     -0.796343
    185 H90        -0.0800   -3.2860   -2.5360 ho        1 MOL      0.368199
    186 H91        -1.1840   -3.5500   -1.5360 ho        1 MOL      0.368199
    187 O26         0.0230   -0.1000   -3.1060 oh        1 MOL     -0.796343
    188 H92        -0.1070    0.7620   -3.4970 ho        1 MOL      0.368199
    189 H93        -0.1100   -0.7160   -3.8170 ho        1 MOL      0.368199
@<TRIPOS>BOND
     1    1    2 1   
     2    1    4 1   
     3    1    5 1   
     4    1    6 1   
     5    2    3 2   
     6    2    7 1   
     7    7    8 1   
     8    7   15 1   
     9    8    9 1   
    10    8   11 1   
    11    8   16 1   
    12    9   10 2   
    13    9   19 1   
    14   11   12 1   
    15   11   17 1   
    16   11   18 1   
    17   12   13 1   
    18   12   14 1   
    19   19   20 1   
    20   19   28 1   
    21   20   21 1   
    22   20   23 1   
    23   20   29 1   
    24   21   22 2   
    25   21   41 1   
    26   23   24 1   
    27   23   30 1   
    28   23   31 1   
    29   24   25 1   
    30   24   32 1   
    31   24   33 1   
    32   25   26 1   
    33   25   34 1   
    34   25   35 1   
    35   26   27 1   
    36   26   36 1   
    37   26   37 1   
    38   27   38 1   
    39   27   39 1   
    40   27   40 1   
    41   41   42 1   
    42   41   49 1   
    43   42   43 1   
    44   42   45 1   
    45   42   50 1   
    46   43   44 2   
    47   43   53 1   
    48   45   46 1   
    49   45   51 1   
    50   45   52 1   
    51   46   47 1   
    52   46   48 1   
    53   53   54 1   
    54   53   57 1   
    55   54   55 1   
    56   54   58 1   
    57   54   59 1   
    58   55   56 2   
    59   55   60 1   
    60   60   61 1   
    61   60   68 1   
    62   61   62 1   
    63   61   64 1   
    64   61   69 1   
    65   62   63 2   
    66   62   72 1   
    67   64   65 1   
    68   64   70 1   
    69   64   71 1   
    70   65   66 1   
    71   65   67 1   
    72   72   73 1   
    73   72   76 1   
    74   73   74 1   
    75   73   77 1   
    76   73   78 1   
    77   74   75 2   
    78   74   79 1   
    79   79   80 1   
    80   79   86 1   
    81   80   81 1   
    82   80   83 1   
    83   80   87 1   
    84   81   82 2   
    85   81   93 1   
    86   83   84 1   
    87   83   85 1   
    88   83   88 1   
    89   84   90 1   
    90   84   91 1   
    91   84   92 1   
    92   85   89 1   
    93   93   94 1   
    94   93  101 1   
    95   94   95 1   
    96   94   97 1   
    97   94  102 1   
    98   95   96 2   
    99   95  112 1   
   100   97   98 1   
   101   97   99 1   
   102   97  103 1   
   103   98  100 1   
   104   98  104 1   
   105   98  105 1   
   106   99  106 1   
   107   99  107 1   
   108   99  108 1   
   109  100  109 1   
   110  100  110 1   
   111  100  111 1   
   112  112  113 1   
   113  112  119 1   
   114  113  114 1   
   115  113  116 1   
   116  113  120 1   
   117  114  115 2   
   118  114  126 1   
   119  116  117 1   
   120  116  118 1   
   121  116  121 1   
   122  117  123 1   
   123  117  124 1   
   124  117  125 1   
   125  118  122 1   
   126  126  127 1   
   127  126  133 1   
   128  127  128 1   
   129  127  130 1   
   130  127  134 1   
   131  128  129 2   
   132  128  140 1   
   133  130  131 1   
   134  130  132 1   
   135  130  135 1   
   136  131  137 1   
   137  131  138 1   
   138  131  139 1   
   139  132  136 1   
   140  140  141 1   
   141  140  149 1   
   142  141  142 1   
   143  141  144 1   
   144  141  150 1   
   145  142  143 2   
   146  142  162 1   
   147  144  145 1   
   148  144  151 1   
   149  144  152 1   
   150  145  146 1   
   151  145  153 1   
   152  145  154 1   
   153  146  147 1   
   154  146  155 1   
   155  146  156 1   
   156  147  148 1   
   157  147  157 1   
   158  147  158 1   
   159  148  159 1   
   160  148  160 1   
   161  148  161 1   
   162  162  163 1   
   163  162  171 1   
   164  163  164 1   
   165  163  166 1   
   166  163  172 1   
   167  164  165 2   
   168  164  177 1   
   169  166  167 1   
   170  166  173 1   
   171  166  174 1   
   172  167  168 1   
   173  167  175 1   
   174  167  176 1   
   175  168  169 1   
   176  168  170 1   
   177  177  178 1   
   178  177  182 1   
   179  178  179 1   
   180  178  180 1   
   181  178  181 1   
   182  184  185 1   
   183  184  186 1   
   184  187  188 1   
   185  187  189 1   
@<TRIPOS>SUBSTRUCTURE
     1 MOL         1 TEMP              0 ****  ****    0 ROOT
