@<TRIPOS>MOLECULE
MOL
  179   176     1     0     0
SMALL
resp


@<TRIPOS>ATOM
      1 C1          2.6490    2.6220    5.3760 c3        1 MOL     -0.425355
      2 C2          2.1020    2.1620    4.0140 c         1 MOL      0.797170
      3 O1          2.8650    1.5900    3.2920 o         1 MOL     -0.601138
      4 H1          1.8760    3.1740    5.9100 hc        1 MOL      0.103548
      5 H2          2.9450    1.7520    5.9630 hc        1 MOL      0.103548
      6 H3          3.5150    3.2670    5.2220 hc        1 MOL      0.103548
      7 N1          0.7930    2.4360    3.7300 n         1 MOL     -0.651964
      8 C3          0.0950    2.1250    2.4450 c3        1 MOL     -0.011345
      9 C4          0.1190    3.4390    1.6320 c         1 MOL      0.373975
     10 O2         -0.4780    4.4740    1.9380 o         1 MOL     -0.492106
     11 C5         -1.3560    1.6620    2.7170 c3        1 MOL     -0.139954
     12 C6         -2.1610    1.3600    1.4020 c         1 MOL      0.970356
     13 O3         -1.5210    1.4200    0.3080 o         1 MOL     -0.913303
     14 O4         -3.3310    1.0350    1.3570 o         1 MOL     -0.913303
     15 H4          0.1850    2.8880    4.4030 hn        1 MOL      0.361875
     16 H5          0.5870    1.3630    1.8500 h1        1 MOL      0.102620
     17 H6         -1.7890    2.3860    3.4070 hc        1 MOL      0.045630
     18 H7         -1.3380    0.7080    3.2410 hc        1 MOL      0.045630
     19 N2          0.9510    3.4180    0.5730 n         1 MOL     -0.197795
     20 C7          1.3680    4.7190   -0.0760 c3        1 MOL      0.003002
     21 C8          0.2910    5.2350   -1.0850 c         1 MOL      0.399340
     22 O5          0.3650    6.3650   -1.5400 o         1 MOL     -0.563338
     23 C9          2.8100    4.6370   -0.7170 c3        1 MOL     -0.171512
     24 C10         4.0240    4.3760    0.2320 c3        1 MOL      0.113645
     25 C11         4.6130    5.7920    0.5150 c3        1 MOL     -0.370051
     26 C12         5.6020    5.7770    1.7300 c3        1 MOL      0.068139
     27 N3          5.7090    7.1450    2.3580 n4        1 MOL     -0.277192
     28 H8          1.3700    2.5370    0.3190 hn        1 MOL      0.275704
     29 H9          1.5420    5.5040    0.6590 h1        1 MOL      0.063761
     30 H10         3.0300    5.6350   -1.0780 hc        1 MOL      0.076259
     31 H11         2.7760    3.8940   -1.5240 hc        1 MOL      0.076259
     32 H12         4.7870    3.8000   -0.2820 hc        1 MOL      0.049626
     33 H13         3.6910    3.8540    1.1240 hc        1 MOL      0.049626
     34 H14         3.8280    6.4500    0.8680 hc        1 MOL      0.135089
     35 H15         5.1570    6.0270   -0.4010 hc        1 MOL      0.135089
     36 H16         6.5890    5.4710    1.3890 hx        1 MOL      0.093545
     37 H17         5.2290    5.0750    2.4810 hx        1 MOL      0.093545
     38 H18         4.8430    7.6530    2.4860 hn        1 MOL      0.300757
     39 H19         6.1790    7.0980    3.2550 hn        1 MOL      0.300757
     40 H20         6.1990    7.7710    1.7380 hn        1 MOL      0.300757
     41 N4         -0.7590    4.4810   -1.3750 n         1 MOL     -0.056118
     42 C13        -1.9180    5.0680   -2.0540 c3        1 MOL      0.011187
     43 C14        -3.1800    4.9720   -1.1210 c         1 MOL      0.322476
     44 O6         -4.3250    5.2170   -1.5600 o         1 MOL     -0.517692
     45 C15        -2.0450    4.4820   -3.4040 c3        1 MOL     -0.015214
     46 C16        -2.4160    3.0520   -3.5120 c         1 MOL      0.611359
     47 O7         -2.7960    2.6040   -4.6360 o         1 MOL     -0.681430
     48 O8         -2.2290    2.2540   -2.5360 o         1 MOL     -0.681430
     49 H21        -0.6450    3.4750   -1.3580 hn        1 MOL      0.087047
     50 H22        -1.7920    6.1350   -2.2140 h1        1 MOL      0.107471
     51 H23        -1.1120    4.7010   -3.9210 hc        1 MOL      0.013744
     52 H24        -2.7770    5.1160   -3.9000 hc        1 MOL      0.013744
     53 N5         -3.0340    4.6870    0.1450 n         1 MOL     -0.118707
     54 C17        -4.1420    4.4430    1.0440 c3        1 MOL     -0.089195
     55 C18        -5.1950    3.4800    0.5050 c         1 MOL      0.428357
     56 O9         -6.3510    3.6720    0.8730 o         1 MOL     -0.571208
     57 H25        -2.1090    4.3710    0.3810 hn        1 MOL      0.031410
     58 H26        -4.4940    5.4410    1.2790 h1        1 MOL      0.095691
     59 H27        -3.7390    4.0460    1.9840 h1        1 MOL      0.095691
     60 N6         -4.9650    2.5720   -0.4550 n         1 MOL     -0.004412
     61 C19        -6.0490    1.8610   -1.0860 c3        1 MOL     -0.194454
     62 C20        -6.7780    0.8150   -0.1980 c         1 MOL      0.487786
     63 O10        -7.8090    0.2950   -0.5650 o         1 MOL     -0.526286
     64 C21        -5.7000    1.1870   -2.4100 c3        1 MOL     -0.113807
     65 C22        -5.0480   -0.1950   -2.4060 c         1 MOL      0.523957
     66 N7         -5.7210   -1.2490   -2.8030 n         1 MOL     -0.535520
     67 O11        -3.9560   -0.3140   -1.9320 o         1 MOL     -0.639416
     68 H28        -4.0170    2.2250   -0.5160 hn        1 MOL      0.228582
     69 H29        -6.7550    2.6850   -1.2080 h1        1 MOL      0.157409
     70 H30        -4.9610    1.8360   -2.8720 hc        1 MOL      0.065681
     71 H31        -6.6360    1.0940   -2.9660 hc        1 MOL      0.065681
     72 H32        -6.5800   -1.0750   -3.3000 hn        1 MOL      0.304755
     73 H33        -5.3190   -2.1760   -2.7810 hn        1 MOL      0.304755
     74 N8         -6.1930    0.4950    0.9890 n         1 MOL     -0.304634
     75 C23        -6.4960   -0.6680    1.9250 c3        1 MOL     -0.199004
     76 C24        -5.3920   -1.7760    2.0570 c         1 MOL      0.615101
     77 O12        -5.6150   -2.7040    2.8380 o         1 MOL     -0.585880
     78 H34        -5.2960    0.9490    1.1230 hn        1 MOL      0.258746
     79 H35        -7.4150   -1.2020    1.6960 h1        1 MOL      0.133055
     80 H36        -6.8100   -0.2110    2.8700 h1        1 MOL      0.133055
     81 N9         -4.2560   -1.7180    1.4560 n         1 MOL     -0.707935
     82 C25        -3.3880   -2.8930    1.2190 c3        1 MOL      0.358013
     83 C26        -1.9420   -2.4870    1.0030 c         1 MOL      0.503902
     84 O13        -1.6110   -1.5890    0.1880 o         1 MOL     -0.595660
     85 C27        -3.9130   -3.6540    0.0260 c3        1 MOL      0.024913
     86 C28        -5.2720   -4.2770    0.1480 ca        1 MOL      0.104014
     87 C29        -6.4260   -3.6310   -0.4450 ca        1 MOL     -0.223712
     88 C30        -5.4100   -5.5380    0.6090 ca        1 MOL     -0.223712
     89 C31        -7.6850   -4.1560   -0.2870 ca        1 MOL     -0.208862
     90 C32        -6.6620   -6.0900    0.7960 ca        1 MOL     -0.208862
     91 C33        -7.8040   -5.3710    0.3760 ca        1 MOL      0.324746
     92 O14        -9.0460   -5.8300    0.5990 oh        1 MOL     -0.482964
     93 H37        -3.9670   -0.8300    1.0780 hn        1 MOL      0.548334
     94 H38        -3.3620   -3.6240    2.0210 h1        1 MOL      0.013881
     95 H39        -3.1950   -4.4670   -0.0780 hc        1 MOL     -0.051651
     96 H40        -3.8720   -3.0060   -0.8510 hc        1 MOL     -0.051651
     97 H41        -6.2440   -2.7660   -1.0530 ha        1 MOL      0.135036
     98 H42        -4.5240   -6.0380    0.9690 ha        1 MOL      0.135036
     99 H43        -8.5490   -3.6270   -0.6730 ha        1 MOL      0.135982
    100 H44        -6.7050   -7.0700    1.2610 ha        1 MOL      0.135982
    101 H45        -9.1140   -6.5680    1.2160 ho        1 MOL      0.362869
    102 N10        -1.0600   -2.9870    1.8850 n         1 MOL     -0.512388
    103 C34         0.3980   -2.6190    1.8720 c3        1 MOL      0.004492
    104 C35         1.1300   -3.7670    1.1000 c         1 MOL      0.455311
    105 O15         1.0920   -4.9390    1.5310 o         1 MOL     -0.541541
    106 C36         0.9910   -2.3620    3.2770 c3        1 MOL      0.290828
    107 C37         0.2360   -1.3620    4.1970 c3        1 MOL      0.203269
    108 C38         2.4680   -1.9460    3.1170 c3        1 MOL     -0.578027
    109 C39         0.3250   -1.5970    5.7050 c3        1 MOL     -0.243507
    110 H46        -1.3520   -3.4430    2.7460 hn        1 MOL      0.288465
    111 H47         0.4930   -1.7090    1.2860 h1        1 MOL      0.065111
    112 H48         1.0340   -3.3370    3.7690 hc        1 MOL     -0.038859
    113 H49        -0.7980   -1.3860    3.8690 hc        1 MOL     -0.043555
    114 H50         0.6370   -0.3590    3.9840 hc        1 MOL     -0.043555
    115 H51         2.4730   -1.2070    2.3120 hc        1 MOL      0.151095
    116 H52         2.8140   -1.5380    4.0710 hc        1 MOL      0.151095
    117 H53         3.0230   -2.8140    2.7600 hc        1 MOL      0.151095
    118 H54        -0.3920   -2.3670    5.9920 hc        1 MOL      0.052205
    119 H55         1.3160   -1.9790    5.9940 hc        1 MOL      0.052205
    120 H56         0.1850   -0.6610    6.2500 hc        1 MOL      0.052205
    121 N11         1.8310   -3.4560   -0.0230 n         1 MOL     -0.057136
    122 C40         2.7080   -4.3060   -0.7970 c3        1 MOL     -0.319863
    123 C41         4.2070   -4.0310   -0.4900 c         1 MOL      0.741928
    124 O16         4.5070   -2.9460   -0.0390 o         1 MOL     -0.568876
    125 C42         2.3530   -4.1620   -2.2500 c3        1 MOL      0.185967
    126 O17         2.4060   -2.8410   -2.6300 oh        1 MOL     -0.573378
    127 H57         1.6490   -2.5290   -0.3770 hn        1 MOL      0.155512
    128 H58         2.5700   -5.3650   -0.5600 h1        1 MOL      0.090954
    129 H59         1.3120   -4.4040   -2.4420 h1        1 MOL      0.026847
    130 H60         3.0460   -4.7850   -2.8170 h1        1 MOL      0.026847
    131 H61         2.1110   -2.2300   -1.9410 ho        1 MOL      0.373217
    132 N12         5.0660   -5.0200   -0.5300 n         1 MOL     -0.524421
    133 C43         6.4200   -4.6870   -0.0790 c3        1 MOL      0.072073
    134 C44         7.1690   -3.6040   -0.9140 c         1 MOL      0.516747
    135 O18         8.0300   -2.8780   -0.3590 o         1 MOL     -0.540387
    136 C45         7.0830   -6.0110   -0.0310 c3        1 MOL     -0.250074
    137 H62         4.8320   -5.9710   -0.7860 hn        1 MOL      0.323328
    138 H63         6.3740   -4.2780    0.9260 h1        1 MOL      0.128440
    139 H64         6.4800   -6.8450    0.3300 hc        1 MOL      0.079507
    140 H65         7.5680   -6.2400   -0.9880 hc        1 MOL      0.079507
    141 H66         7.9040   -5.8790    0.6800 hc        1 MOL      0.079507
    142 N13         6.8370   -3.3210   -2.1580 n         1 MOL     -0.410680
    143 C46         7.3400   -2.1870   -2.9210 c3        1 MOL      0.210286
    144 C47         7.0010   -0.8780   -2.2650 c         1 MOL      0.288107
    145 O19         7.7110    0.1140   -2.3770 o         1 MOL     -0.515645
    146 C48         6.7630   -2.2590   -4.2980 c3        1 MOL     -0.414004
    147 H67         6.0490   -3.8220   -2.5390 hn        1 MOL      0.245397
    148 H68         8.4190   -2.2580   -3.0080 h1        1 MOL      0.081482
    149 H69         7.1680   -1.3880   -4.8380 hc        1 MOL      0.117789
    150 H70         7.0990   -3.2030   -4.7210 hc        1 MOL      0.117789
    151 H71         5.7010   -2.0540   -4.3740 hc        1 MOL      0.117789
    152 N14         5.9440   -0.8080   -1.4180 n         1 MOL      0.169197
    153 C49         5.4950    0.3270   -0.6340 c3        1 MOL     -0.365889
    154 C50         6.1960    0.4260    0.7100 c         1 MOL      0.680381
    155 O20         6.6720    1.4890    1.0000 o         1 MOL     -0.606136
    156 C51         3.9370    0.3730   -0.5170 c3        1 MOL      0.201873
    157 C52         3.2200    0.3790   -1.8560 c3        1 MOL      0.029318
    158 C53         1.7190    0.3100   -1.6660 c         1 MOL      0.507743
    159 O21         1.1280    1.3740   -1.7660 o         1 MOL     -0.623805
    160 O22         1.2340   -0.7720   -1.2570 o         1 MOL     -0.623805
    161 H72         5.4150   -1.6630   -1.2820 hn        1 MOL      0.060989
    162 H73         5.7970    1.2920   -1.0610 h1        1 MOL      0.137570
    163 H74         3.7980    1.3230    0.0140 hc        1 MOL     -0.070923
    164 H75         3.5670   -0.3870    0.1640 hc        1 MOL     -0.070923
    165 H76         3.6270   -0.4920   -2.3840 hc        1 MOL     -0.036717
    166 H77         3.4380    1.3040   -2.3890 hc        1 MOL     -0.036717
    167 N15         6.4930   -0.6520    1.4470 n         1 MOL     -0.257989
    168 C54         7.4300   -0.7770    2.5760 c3        1 MOL     -0.252325
    169 H78         7.0030   -0.2950    3.4560 h1        1 MOL      0.110773
    170 H79         7.6050   -1.8310    2.7890 h1        1 MOL      0.110773
    171 H80         8.3740   -0.2960    2.3210 h1        1 MOL      0.110773
    172 H81         6.1870   -1.5100    1.0220 hn        1 MOL      0.175155
    173 Ca1        -1.2440    0.0020   -1.7710 Ca        1 MOL      1.756843
    174 O23        -0.3230    0.0280   -4.3100 oh        1 MOL     -0.872929
    175 H82         0.0870    0.8610   -4.5210 ho        1 MOL      0.433681
    176 H83        -0.3780   -0.4330   -5.1510 ho        1 MOL      0.433681
    177 O24        -1.6030   -2.6400   -2.4830 oh        1 MOL     -0.872929
    178 H84        -1.0000   -3.2940   -2.8340 ho        1 MOL      0.433681
    179 H85        -2.4670   -3.0350   -2.5840 ho        1 MOL      0.433681
@<TRIPOS>BOND
     1    1    2 1   
     2    1    4 1   
     3    1    5 1   
     4    1    6 1   
     5    2    3 2   
     6    2    7 1   
     7    7    8 1   
     8    7   15 1   
     9    8    9 1   
    10    8   11 1   
    11    8   16 1   
    12    9   10 2   
    13    9   19 1   
    14   11   12 1   
    15   11   17 1   
    16   11   18 1   
    17   12   13 1   
    18   12   14 1   
    19   19   20 1   
    20   19   28 1   
    21   20   21 1   
    22   20   23 1   
    23   20   29 1   
    24   21   22 2   
    25   21   41 1   
    26   23   24 1   
    27   23   30 1   
    28   23   31 1   
    29   24   25 1   
    30   24   32 1   
    31   24   33 1   
    32   25   26 1   
    33   25   34 1   
    34   25   35 1   
    35   26   27 1   
    36   26   36 1   
    37   26   37 1   
    38   27   38 1   
    39   27   39 1   
    40   27   40 1   
    41   41   42 1   
    42   41   49 1   
    43   42   43 1   
    44   42   45 1   
    45   42   50 1   
    46   43   44 2   
    47   43   53 1   
    48   45   46 1   
    49   45   51 1   
    50   45   52 1   
    51   46   47 1   
    52   46   48 1   
    53   53   54 1   
    54   53   57 1   
    55   54   55 1   
    56   54   58 1   
    57   54   59 1   
    58   55   56 2   
    59   55   60 1   
    60   60   61 1   
    61   60   68 1   
    62   61   62 1   
    63   61   64 1   
    64   61   69 1   
    65   62   63 2   
    66   62   74 1   
    67   64   65 1   
    68   64   70 1   
    69   64   71 1   
    70   65   66 1   
    71   65   67 2   
    72   66   72 1   
    73   66   73 1   
    74   74   75 1   
    75   74   78 1   
    76   75   76 1   
    77   75   79 1   
    78   75   80 1   
    79   76   77 2   
    80   76   81 1   
    81   81   82 1   
    82   81   93 1   
    83   82   83 1   
    84   82   85 1   
    85   82   94 1   
    86   83   84 2   
    87   83  102 1   
    88   85   86 1   
    89   85   95 1   
    90   85   96 1   
    91   86   87 ar  
    92   86   88 ar  
    93   87   89 ar  
    94   87   97 1   
    95   88   90 ar  
    96   88   98 1   
    97   89   91 ar  
    98   89   99 1   
    99   90   91 ar  
   100   90  100 1   
   101   91   92 1   
   102   92  101 1   
   103  102  103 1   
   104  102  110 1   
   105  103  104 1   
   106  103  106 1   
   107  103  111 1   
   108  104  105 2   
   109  104  121 1   
   110  106  107 1   
   111  106  108 1   
   112  106  112 1   
   113  107  109 1   
   114  107  113 1   
   115  107  114 1   
   116  108  115 1   
   117  108  116 1   
   118  108  117 1   
   119  109  118 1   
   120  109  119 1   
   121  109  120 1   
   122  121  122 1   
   123  121  127 1   
   124  122  123 1   
   125  122  125 1   
   126  122  128 1   
   127  123  124 2   
   128  123  132 1   
   129  125  126 1   
   130  125  129 1   
   131  125  130 1   
   132  126  131 1   
   133  132  133 1   
   134  132  137 1   
   135  133  134 1   
   136  133  136 1   
   137  133  138 1   
   138  134  135 2   
   139  134  142 1   
   140  136  139 1   
   141  136  140 1   
   142  136  141 1   
   143  142  143 1   
   144  142  147 1   
   145  143  144 1   
   146  143  146 1   
   147  143  148 1   
   148  144  145 2   
   149  144  152 1   
   150  146  149 1   
   151  146  150 1   
   152  146  151 1   
   153  152  153 1   
   154  152  161 1   
   155  153  154 1   
   156  153  156 1   
   157  153  162 1   
   158  154  155 2   
   159  154  167 1   
   160  156  157 1   
   161  156  163 1   
   162  156  164 1   
   163  157  158 1   
   164  157  165 1   
   165  157  166 1   
   166  158  159 1   
   167  158  160 1   
   168  167  168 1   
   169  167  172 1   
   170  168  169 1   
   171  168  170 1   
   172  168  171 1   
   173  174  175 1   
   174  174  176 1   
   175  177  178 1   
   176  177  179 1   
@<TRIPOS>SUBSTRUCTURE
     1 MOL         1 TEMP              0 ****  ****    0 ROOT
