@<TRIPOS>MOLECULE
MOL
  189   185     1     0     0
SMALL
resp


@<TRIPOS>ATOM
      1 C1         -0.7750    1.9350    6.7650 c3        1 MOL     -0.299719
      2 C2         -1.0060    1.9810    5.2430 c         1 MOL      0.674182
      3 O1         -0.1600    2.4310    4.4640 o         1 MOL     -0.608421
      4 H1         -0.0910    2.7340    7.0530 hc        1 MOL      0.079866
      5 H2         -1.7250    2.0670    7.2810 hc        1 MOL      0.079866
      6 H3         -0.3420    0.9720    7.0380 hc        1 MOL      0.079866
      7 N1         -2.1540    1.4250    4.7750 n         1 MOL     -0.598172
      8 C3         -2.4170    1.1460    3.3250 c3        1 MOL      0.024741
      9 C4         -2.8010    2.4680    2.6800 c         1 MOL      0.534628
     10 O2         -3.9880    2.9570    2.8600 o         1 MOL     -0.557915
     11 C5         -3.6680    0.2410    3.1920 c3        1 MOL     -0.008715
     12 C6         -4.0650   -0.1990    1.7810 c         1 MOL      0.614798
     13 O3         -3.3230    0.1530    0.8470 o         1 MOL     -0.662559
     14 O4         -5.1770   -0.7540    1.6060 o         1 MOL     -0.662559
     15 H4         -2.7890    1.1020    5.4870 hn        1 MOL      0.333065
     16 H5         -1.5600    0.6320    2.8740 h1        1 MOL     -0.002754
     17 H6         -4.5060    0.7310    3.6930 hc        1 MOL      0.009169
     18 H7         -3.5120   -0.6850    3.7590 hc        1 MOL      0.009169
     19 N2         -1.9010    3.1330    2.0120 n         1 MOL     -0.054278
     20 C7         -2.0480    4.5830    1.7700 c3        1 MOL     -0.275159
     21 C8         -3.2570    4.9460    0.9010 c         1 MOL      0.544986
     22 O5         -3.7100    6.1220    0.9280 o         1 MOL     -0.582780
     23 C9         -0.7500    5.1530    1.1860 c3        1 MOL     -0.066598
     24 C10        -0.5500    4.7240   -0.2330 c3        1 MOL      0.063844
     25 C11         0.8140    4.9840   -0.8710 c3        1 MOL     -0.022831
     26 C12         1.2960    6.4510   -0.7590 c3        1 MOL      0.053809
     27 N3          0.7320    7.3370   -1.7780 n4        1 MOL     -0.433334
     28 H8         -1.0500    2.6670    1.7350 hn        1 MOL      0.191803
     29 H9         -2.1860    5.0970    2.7140 h1        1 MOL      0.142137
     30 H10         0.0680    4.9070    1.8510 hc        1 MOL      0.056226
     31 H11        -0.8250    6.2410    1.2590 hc        1 MOL      0.056226
     32 H12        -1.3730    5.0450   -0.8840 hc        1 MOL      0.000362
     33 H13        -0.6850    3.6410   -0.2170 hc        1 MOL      0.000362
     34 H14         0.7910    4.7330   -1.9320 hc        1 MOL      0.011400
     35 H15         1.4730    4.2670   -0.3660 hc        1 MOL      0.011400
     36 H16         2.3760    6.5620   -0.7750 hx        1 MOL      0.066575
     37 H17         1.0480    6.6820    0.2790 hx        1 MOL      0.066575
     38 H18         0.9770    7.0030   -2.7050 hn        1 MOL      0.348066
     39 H19        -0.2790    7.3820   -1.7910 hn        1 MOL      0.348066
     40 H20         1.0480    8.2820   -1.6810 hn        1 MOL      0.348066
     41 N4         -3.7850    4.0140    0.1290 n         1 MOL     -0.246181
     42 C13        -4.7570    4.2390   -0.9330 c3        1 MOL     -0.023048
     43 C14        -5.9800    3.3510   -0.8840 c         1 MOL      0.496216
     44 O6         -6.9090    3.6410   -1.6050 o         1 MOL     -0.523539
     45 C15        -4.0180    4.2110   -2.2530 c3        1 MOL     -0.213849
     46 C16        -3.2370    2.8820   -2.3810 c         1 MOL      0.839660
     47 O7         -3.3890    1.8770   -1.6990 o         1 MOL     -0.744385
     48 O8         -2.3230    3.0070   -3.2490 o         1 MOL     -0.744385
     49 H21        -3.4300    3.0660    0.1000 hn        1 MOL      0.055776
     50 H22        -5.1380    5.2520   -0.8400 h1        1 MOL      0.105622
     51 H23        -3.3520    5.0680   -2.3510 hc        1 MOL      0.061898
     52 H24        -4.7050    4.3640   -3.0860 hc        1 MOL      0.061898
     53 N5         -6.0320    2.4000    0.0430 n         1 MOL     -0.321833
     54 C17        -7.2220    1.5840    0.3120 c3        1 MOL     -0.173897
     55 C18        -7.5870    0.4980   -0.7060 c         1 MOL      0.475034
     56 O9         -8.7530    0.2950   -1.0650 o         1 MOL     -0.567284
     57 H25        -5.1790    2.1740    0.5390 hn        1 MOL      0.298936
     58 H26        -8.0440    2.3090    0.3040 h1        1 MOL      0.117004
     59 H27        -7.1790    1.2010    1.3280 h1        1 MOL      0.117004
     60 N6         -6.5520   -0.1250   -1.3310 n         1 MOL     -0.153047
     61 C19        -6.7480   -1.1660   -2.3590 c3        1 MOL     -0.008351
     62 C20        -6.6320   -2.5460   -1.7350 c         1 MOL      0.404389
     63 O10        -6.7290   -3.5650   -2.4460 o         1 MOL     -0.519904
     64 C21        -5.7650   -0.8660   -3.4260 c3        1 MOL     -0.177840
     65 C22        -4.2830   -1.1260   -3.0770 c         1 MOL      0.821281
     66 O11        -3.8960   -1.4360   -1.9230 o         1 MOL     -0.716492
     67 O12        -3.4330   -0.9430   -3.9850 o         1 MOL     -0.716492
     68 H28        -5.6240    0.0800   -0.9830 hn        1 MOL      0.160862
     69 H29        -7.6940   -1.1670   -2.8820 h1        1 MOL      0.133670
     70 H30        -5.9290    0.1670   -3.7290 hc        1 MOL      0.050550
     71 H31        -6.0210   -1.4410   -4.3150 hc        1 MOL      0.050550
     72 N7         -6.5470   -2.6690   -0.4220 n         1 MOL     -0.273068
     73 C23        -6.4110   -3.8260    0.3700 c3        1 MOL     -0.192251
     74 C24        -5.0770   -4.5340    0.4750 c         1 MOL      0.472745
     75 O13        -4.9840   -5.6860    0.8700 o         1 MOL     -0.556315
     76 H32        -6.3670   -1.8010    0.0790 hn        1 MOL      0.246358
     77 H33        -7.1580   -4.5470    0.0120 h1        1 MOL      0.115277
     78 H34        -6.7250   -3.5860    1.3880 h1        1 MOL      0.115277
     79 N8         -4.0540   -3.8570   -0.0020 n         1 MOL     -0.098545
     80 C25        -2.7410   -4.5070   -0.1290 c3        1 MOL     -0.354292
     81 C26        -1.5660   -3.6580    0.2570 c         1 MOL      0.699814
     82 O14        -1.3450   -2.6100   -0.2730 o         1 MOL     -0.655368
     83 C27        -2.4920   -5.2410   -1.4840 c3        1 MOL      0.426651
     84 C28        -3.4680   -6.3820   -1.8230 c3        1 MOL     -0.490912
     85 O15        -2.5900   -4.4380   -2.6450 oh        1 MOL     -0.603312
     86 H35        -4.1390   -2.8970   -0.3010 hn        1 MOL      0.235519
     87 H36        -2.7420   -5.3440    0.5690 h1        1 MOL      0.108342
     88 H37        -1.4670   -5.5950   -1.5410 h1        1 MOL     -0.015816
     89 H38        -2.0610   -3.6380   -2.5560 ho        1 MOL      0.377059
     90 H39        -3.1070   -7.0010   -2.6440 hc        1 MOL      0.141471
     91 H40        -3.5790   -7.0780   -0.9920 hc        1 MOL      0.141471
     92 H41        -4.4290   -5.8950   -1.9220 hc        1 MOL      0.141471
     93 N9         -0.6920   -4.1020    1.2030 n         1 MOL     -0.573987
     94 C29         0.5630   -3.3860    1.5490 c3        1 MOL      0.228124
     95 C30         1.6130   -3.7760    0.4610 c         1 MOL      0.456224
     96 O16         1.9250   -4.9820    0.3810 o         1 MOL     -0.555345
     97 C31         1.1170   -3.6040    2.9950 c3        1 MOL     -0.009495
     98 C32         0.0480   -3.2470    4.1220 c3        1 MOL     -0.049111
     99 C33         2.4450   -2.9490    3.3440 c3        1 MOL     -0.110091
    100 C34        -0.1180   -1.7200    4.2350 c3        1 MOL     -0.087627
    101 H42        -0.7980   -5.0030    1.6280 hn        1 MOL      0.313912
    102 H43         0.2890   -2.3360    1.4140 h1        1 MOL     -0.001238
    103 H44         1.1710   -4.6950    2.9830 hc        1 MOL      0.003814
    104 H45         0.3900   -3.7270    5.0440 hc        1 MOL      0.025573
    105 H46        -0.8990   -3.7020    3.8290 hc        1 MOL      0.025573
    106 H47         2.8060   -3.2670    4.3260 hc        1 MOL      0.022294
    107 H48         3.1960   -3.2710    2.6200 hc        1 MOL      0.022294
    108 H49         2.3600   -1.8630    3.3010 hc        1 MOL      0.022294
    109 H50        -0.3250   -1.1800    3.3070 hc        1 MOL      0.042511
    110 H51        -1.0380   -1.6410    4.8150 hc        1 MOL      0.042511
    111 H52         0.7180   -1.2650    4.7550 hc        1 MOL      0.042511
    112 N10         2.1400   -2.8180   -0.3160 n         1 MOL     -0.147183
    113 C35         3.3880   -2.8450   -1.2040 c3        1 MOL     -0.045877
    114 C36         4.6580   -2.6670   -0.4100 c         1 MOL      0.251706
    115 O17         4.5590   -2.3100    0.7230 o         1 MOL     -0.180231
    116 C37         3.3880   -1.7300   -2.2130 c3        1 MOL      0.257085
    117 C38         2.2560   -1.7630   -3.2450 c3        1 MOL     -0.553200
    118 O18         3.3430   -0.4940   -1.5490 oh        1 MOL     -0.525407
    119 H53         1.7060   -1.9040   -0.3150 hn        1 MOL      0.100313
    120 H54         3.4620   -3.8480   -1.6380 h1        1 MOL      0.086416
    121 H55         4.3580   -1.7110   -2.7170 h1        1 MOL      0.039446
    122 H56         2.4510   -0.4440   -1.2010 ho        1 MOL      0.337808
    123 H57         2.2890   -2.7370   -3.7380 hc        1 MOL      0.151820
    124 H58         1.3200   -1.6750   -2.6870 hc        1 MOL      0.151820
    125 H59         2.1250   -0.8560   -3.8210 hc        1 MOL      0.151820
    126 N11         5.8580   -2.9320   -0.9530 n         1 MOL     -0.319790
    127 C39         7.1820   -2.6230   -0.4300 c3        1 MOL     -0.044693
    128 C40         7.2790   -1.0930   -0.0400 c         1 MOL      0.293386
    129 O19         7.8020   -0.8220    1.0260 o         1 MOL     -0.452669
    130 C41         8.3200   -2.8600   -1.4210 c3        1 MOL      0.195648
    131 C42         8.7450   -4.3100   -1.5360 c3        1 MOL     -0.424754
    132 O20         8.0380   -2.5840   -2.7640 oh        1 MOL     -0.635586
    133 H60         5.8710   -3.2540   -1.9110 hn        1 MOL      0.285556
    134 H61         7.3810   -3.2050    0.4780 h1        1 MOL      0.146412
    135 H62         9.1230   -2.2380   -1.0440 h1        1 MOL      0.082308
    136 H63         8.8310   -2.9720   -3.1530 ho        1 MOL      0.419315
    137 H64         8.7180   -4.6850   -0.5100 hc        1 MOL      0.122193
    138 H65         8.1040   -4.8750   -2.2150 hc        1 MOL      0.122193
    139 H66         9.8100   -4.3170   -1.7670 hc        1 MOL      0.122193
    140 N12         6.6620   -0.1810   -0.8480 n         1 MOL     -0.202265
    141 C43         6.6240    1.2520   -0.5790 c3        1 MOL     -0.113165
    142 C44         5.9430    1.5060    0.7680 c         1 MOL      0.285544
    143 O21         6.2630    2.4620    1.4780 o         1 MOL     -0.531019
    144 C45         6.0540    2.0770   -1.7400 c3        1 MOL     -0.037537
    145 C46         6.9480    2.4560   -2.9330 c3        1 MOL     -0.058908
    146 C47         8.0910    3.3760   -2.5210 c3        1 MOL     -0.024405
    147 C48         8.9200    3.8500   -3.7370 c3        1 MOL      0.118388
    148 N13        10.1040    4.6590   -3.4030 n4        1 MOL     -0.275857
    149 H67         6.2140   -0.5570   -1.6750 hn        1 MOL      0.258888
    150 H68         7.6520    1.5840   -0.4280 h1        1 MOL      0.110128
    151 H69         5.5800    2.9800   -1.3650 hc        1 MOL      0.041562
    152 H70         5.1850    1.4940   -2.0510 hc        1 MOL      0.041562
    153 H71         6.2140    2.9710   -3.5640 hc        1 MOL      0.040332
    154 H72         7.2820    1.4990   -3.3430 hc        1 MOL      0.040332
    155 H73         8.8050    2.8670   -1.8810 hc        1 MOL      0.040208
    156 H74         7.7130    4.2570   -2.0130 hc        1 MOL      0.040208
    157 H75         8.3040    4.4200   -4.4300 hx        1 MOL      0.046016
    158 H76         9.2040    2.9440   -4.2770 hx        1 MOL      0.046016
    159 H77        10.6350    4.8990   -4.2180 hn        1 MOL      0.286921
    160 H78         9.9340    5.4770   -2.8470 hn        1 MOL      0.286921
    161 H79        10.6780    4.0880   -2.7910 hn        1 MOL      0.286921
    162 N14         4.9720    0.6550    1.0880 n         1 MOL      0.150000
    163 C49         4.1130    0.8650    2.2360 c3        1 MOL     -0.127362
    164 C50         4.6890    0.0040    3.4160 c         1 MOL      0.479263
    165 O22         4.4930    0.3870    4.5500 o         1 MOL     -0.532150
    166 C51         2.6820    0.6160    1.7740 c3        1 MOL      0.031888
    167 C52         2.1200    1.5340    0.7470 c3        1 MOL      0.018039
    168 C53         0.8610    0.8050    0.2390 c         1 MOL      0.478380
    169 O23         0.8730   -0.2660   -0.4740 o         1 MOL     -0.618027
    170 O24        -0.2580    1.2920    0.4330 o         1 MOL     -0.618027
    171 H80         4.7330   -0.0490    0.4070 hn        1 MOL      0.008986
    172 H81         4.1250    1.8930    2.6030 h1        1 MOL      0.081299
    173 H82         1.9950    0.7000    2.6160 hc        1 MOL      0.076286
    174 H83         2.6980   -0.4070    1.3970 hc        1 MOL      0.076286
    175 H84         2.8890    1.8010    0.0110 hc        1 MOL      0.008612
    176 H85         1.8300    2.4630    1.2340 hc        1 MOL      0.008612
    177 N15         5.3900   -1.1410    3.1510 n         1 MOL     -0.142327
    178 C54         6.1510   -1.9600    4.0900 c3        1 MOL     -0.373429
    179 H86         6.7200   -1.3130    4.7590 h1        1 MOL      0.134866
    180 H87         5.4660   -2.5740    4.6750 h1        1 MOL      0.134866
    181 H88         6.8370   -2.6040    3.5390 h1        1 MOL      0.134866
    182 H89         5.2950   -1.4720    2.1990 hn        1 MOL      0.084819
    183 Ca1        -1.7540   -0.0870   -1.1390 Ca        1 MOL      1.779763
    184 O25        -1.2150   -1.7220   -3.1400 oh        1 MOL     -0.864845
    185 H90        -2.0130   -1.5720   -3.6510 ho        1 MOL      0.395937
    186 H91        -0.6340   -2.1930   -3.7440 ho        1 MOL      0.395937
    187 O26        -0.5630    1.2830   -2.9350 oh        1 MOL     -0.864845
    188 H92         0.0660    1.2940   -3.6560 ho        1 MOL      0.395937
    189 H93        -1.1230    2.0440   -3.0960 ho        1 MOL      0.395937
@<TRIPOS>BOND
     1    1    2 1   
     2    1    4 1   
     3    1    5 1   
     4    1    6 1   
     5    2    3 2   
     6    2    7 1   
     7    7    8 1   
     8    7   15 1   
     9    8    9 1   
    10    8   11 1   
    11    8   16 1   
    12    9   10 2   
    13    9   19 1   
    14   11   12 1   
    15   11   17 1   
    16   11   18 1   
    17   12   13 1   
    18   12   14 1   
    19   19   20 1   
    20   19   28 1   
    21   20   21 1   
    22   20   23 1   
    23   20   29 1   
    24   21   22 2   
    25   21   41 1   
    26   23   24 1   
    27   23   30 1   
    28   23   31 1   
    29   24   25 1   
    30   24   32 1   
    31   24   33 1   
    32   25   26 1   
    33   25   34 1   
    34   25   35 1   
    35   26   27 1   
    36   26   36 1   
    37   26   37 1   
    38   27   38 1   
    39   27   39 1   
    40   27   40 1   
    41   41   42 1   
    42   41   49 1   
    43   42   43 1   
    44   42   45 1   
    45   42   50 1   
    46   43   44 2   
    47   43   53 1   
    48   45   46 1   
    49   45   51 1   
    50   45   52 1   
    51   46   47 1   
    52   46   48 1   
    53   53   54 1   
    54   53   57 1   
    55   54   55 1   
    56   54   58 1   
    57   54   59 1   
    58   55   56 2   
    59   55   60 1   
    60   60   61 1   
    61   60   68 1   
    62   61   62 1   
    63   61   64 1   
    64   61   69 1   
    65   62   63 2   
    66   62   72 1   
    67   64   65 1   
    68   64   70 1   
    69   64   71 1   
    70   65   66 1   
    71   65   67 1   
    72   72   73 1   
    73   72   76 1   
    74   73   74 1   
    75   73   77 1   
    76   73   78 1   
    77   74   75 2   
    78   74   79 1   
    79   79   80 1   
    80   79   86 1   
    81   80   81 1   
    82   80   83 1   
    83   80   87 1   
    84   81   82 2   
    85   81   93 1   
    86   83   84 1   
    87   83   85 1   
    88   83   88 1   
    89   84   90 1   
    90   84   91 1   
    91   84   92 1   
    92   85   89 1   
    93   93   94 1   
    94   93  101 1   
    95   94   95 1   
    96   94   97 1   
    97   94  102 1   
    98   95   96 2   
    99   95  112 1   
   100   97   98 1   
   101   97   99 1   
   102   97  103 1   
   103   98  100 1   
   104   98  104 1   
   105   98  105 1   
   106   99  106 1   
   107   99  107 1   
   108   99  108 1   
   109  100  109 1   
   110  100  110 1   
   111  100  111 1   
   112  112  113 1   
   113  112  119 1   
   114  113  114 1   
   115  113  116 1   
   116  113  120 1   
   117  114  115 2   
   118  114  126 1   
   119  116  117 1   
   120  116  118 1   
   121  116  121 1   
   122  117  123 1   
   123  117  124 1   
   124  117  125 1   
   125  118  122 1   
   126  126  127 1   
   127  126  133 1   
   128  127  128 1   
   129  127  130 1   
   130  127  134 1   
   131  128  129 2   
   132  128  140 1   
   133  130  131 1   
   134  130  132 1   
   135  130  135 1   
   136  131  137 1   
   137  131  138 1   
   138  131  139 1   
   139  132  136 1   
   140  140  141 1   
   141  140  149 1   
   142  141  142 1   
   143  141  144 1   
   144  141  150 1   
   145  142  143 2   
   146  142  162 1   
   147  144  145 1   
   148  144  151 1   
   149  144  152 1   
   150  145  146 1   
   151  145  153 1   
   152  145  154 1   
   153  146  147 1   
   154  146  155 1   
   155  146  156 1   
   156  147  148 1   
   157  147  157 1   
   158  147  158 1   
   159  148  159 1   
   160  148  160 1   
   161  148  161 1   
   162  162  163 1   
   163  162  171 1   
   164  163  164 1   
   165  163  166 1   
   166  163  172 1   
   167  164  165 2   
   168  164  177 1   
   169  166  167 1   
   170  166  173 1   
   171  166  174 1   
   172  167  168 1   
   173  167  175 1   
   174  167  176 1   
   175  168  169 1   
   176  168  170 1   
   177  177  178 1   
   178  177  182 1   
   179  178  179 1   
   180  178  180 1   
   181  178  181 1   
   182  184  185 1   
   183  184  186 1   
   184  187  188 1   
   185  187  189 1   
@<TRIPOS>SUBSTRUCTURE
     1 MOL         1 TEMP              0 ****  ****    0 ROOT
