@<TRIPOS>MOLECULE
MOL
  189   185     1     0     0
SMALL
resp


@<TRIPOS>ATOM
      1 C1         -0.0970    1.4450    5.8560 c3        1 MOL     -0.393710
      2 C2         -0.6030    1.8260    4.4740 c         1 MOL      0.769211
      3 O1          0.0760    2.5070    3.7550 o         1 MOL     -0.609092
      4 H1          0.9360    1.1050    5.7830 hc        1 MOL      0.101563
      5 H2         -0.1480    2.3130    6.5140 hc        1 MOL      0.101563
      6 H3         -0.7140    0.6450    6.2610 hc        1 MOL      0.101563
      7 N1         -1.8650    1.4220    4.2120 n         1 MOL     -0.704398
      8 C3         -2.3730    1.3240    2.8700 c3        1 MOL      0.485097
      9 C4         -2.7520    2.6950    2.2530 c         1 MOL      0.317411
     10 O2         -3.9300    3.1220    2.3790 o         1 MOL     -0.514454
     11 C5         -3.4790    0.2390    2.7980 c3        1 MOL     -0.409758
     12 C6         -4.0920    0.0350    1.4330 c         1 MOL      0.833773
     13 O3         -5.1440   -0.6300    1.3450 o         1 MOL     -0.690880
     14 O4         -3.4770    0.5660    0.4410 o         1 MOL     -0.690880
     15 H4         -2.4160    0.9230    4.9000 hn        1 MOL      0.330875
     16 H5         -1.5910    0.9080    2.2350 h1        1 MOL     -0.053754
     17 H6         -4.2230    0.6180    3.4890 hc        1 MOL      0.084367
     18 H7         -3.0360   -0.6880    3.1780 hc        1 MOL      0.084367
     19 N2         -1.8580    3.2090    1.3210 n         1 MOL     -0.250755
     20 C7         -1.8810    4.4860    0.7130 c3        1 MOL      0.058733
     21 C8         -3.1140    4.6630   -0.1660 c         1 MOL      0.313010
     22 O5         -3.5300    5.7810   -0.4510 o         1 MOL     -0.541242
     23 C9         -0.4560    4.7150    0.0800 c3        1 MOL      0.166437
     24 C10        -0.2150    6.1680   -0.2690 c3        1 MOL     -0.045216
     25 C11        -0.6840    7.2790    0.6390 c3        1 MOL      0.004995
     26 C12        -0.0340    7.1650    1.9890 c3        1 MOL      0.140471
     27 N3         -0.6720    8.1190    2.9650 n4        1 MOL     -0.426137
     28 H8         -0.9650    2.7670    1.2030 hn        1 MOL      0.169137
     29 H9         -2.0500    5.1110    1.5890 h1        1 MOL      0.050462
     30 H10        -0.4850    4.0940   -0.8170 hc        1 MOL     -0.004810
     31 H11         0.3530    4.3160    0.6850 hc        1 MOL     -0.004810
     32 H12        -0.5990    6.4450   -1.2530 hc        1 MOL      0.021043
     33 H13         0.8660    6.2040   -0.4320 hc        1 MOL      0.021043
     34 H14        -1.7720    7.3220    0.7550 hc        1 MOL      0.006253
     35 H15        -0.2920    8.2210    0.2580 hc        1 MOL      0.006253
     36 H16         1.0420    7.2870    1.9960 hx        1 MOL      0.037523
     37 H17        -0.1450    6.1170    2.2840 hx        1 MOL      0.037523
     38 H18        -0.5550    9.0550    2.6110 hn        1 MOL      0.335964
     39 H19        -1.6680    7.9650    3.0740 hn        1 MOL      0.335964
     40 H20        -0.2560    8.1230    3.8810 hn        1 MOL      0.335964
     41 N4         -3.6680    3.5460   -0.7600 n         1 MOL      0.120759
     42 C13        -4.7890    3.5750   -1.7090 c3        1 MOL     -0.136014
     43 C14        -6.1140    3.1900   -1.1130 c         1 MOL      0.393311
     44 O6         -7.1740    3.3390   -1.7520 o         1 MOL     -0.497541
     45 C15        -4.4280    2.6850   -2.9120 c3        1 MOL     -0.019916
     46 C16        -2.9530    2.6660   -3.2900 c         1 MOL      0.607930
     47 O7         -2.1430    1.8880   -2.7800 o         1 MOL     -0.633044
     48 O8         -2.5480    3.4170   -4.2050 o         1 MOL     -0.633044
     49 H21        -3.2120    2.7100   -0.4200 hn        1 MOL     -0.016507
     50 H22        -4.8700    4.6070   -2.0700 h1        1 MOL      0.111426
     51 H23        -5.0820    2.9790   -3.7340 hc        1 MOL      0.022317
     52 H24        -4.8010    1.6840   -2.7120 hc        1 MOL      0.022317
     53 N5         -6.1380    2.6200    0.0870 n         1 MOL     -0.276932
     54 C17        -7.3500    1.8310    0.4970 c3        1 MOL     -0.060684
     55 C18        -7.7070    0.6420   -0.4460 c         1 MOL      0.405246
     56 O9         -8.8980    0.4840   -0.6650 o         1 MOL     -0.544846
     57 H25        -5.3570    2.7200    0.7150 hn        1 MOL      0.196654
     58 H26        -8.2240    2.4670    0.5950 h1        1 MOL      0.076823
     59 H27        -7.1660    1.4240    1.4880 h1        1 MOL      0.076823
     60 N6         -6.6640    0.0420   -1.0120 n         1 MOL     -0.047924
     61 C19        -6.9300   -1.1080   -1.9040 c3        1 MOL     -0.076363
     62 C20        -6.8440   -2.4470   -1.2460 c         1 MOL      0.380970
     63 O10        -6.9170   -3.4790   -1.9180 o         1 MOL     -0.506370
     64 C21        -5.8960   -1.1610   -3.0430 c3        1 MOL     -0.237096
     65 C22        -4.4690   -1.2540   -2.6290 c         1 MOL      0.841886
     66 O11        -3.5950   -0.6320   -3.2250 o         1 MOL     -0.762320
     67 O12        -4.0820   -1.9390   -1.6360 o         1 MOL     -0.762320
     68 H28        -5.7340    0.1770   -0.6340 hn        1 MOL      0.112071
     69 H29        -7.9120   -0.9150   -2.3290 h1        1 MOL      0.141980
     70 H30        -6.0030   -0.2600   -3.6380 hc        1 MOL      0.072729
     71 H31        -6.1390   -2.0490   -3.6180 hc        1 MOL      0.072729
     72 N7         -6.7230   -2.5280    0.0860 n         1 MOL     -0.319277
     73 C23        -6.6910   -3.7370    0.9420 c3        1 MOL     -0.053175
     74 C24        -5.2770   -4.3260    1.0710 c         1 MOL      0.529797
     75 O13        -5.1980   -5.3630    1.7440 o         1 MOL     -0.584128
     76 H32        -6.6940   -1.6690    0.6190 hn        1 MOL      0.285326
     77 H33        -7.1820   -4.6080    0.5110 h1        1 MOL      0.083518
     78 H34        -7.1160   -3.5740    1.9350 h1        1 MOL      0.083518
     79 N8         -4.2070   -3.7260    0.5260 n         1 MOL     -0.156272
     80 C25        -2.8720   -4.4210    0.4240 c3        1 MOL     -0.279037
     81 C26        -1.6200   -3.5980    0.5490 c         1 MOL      0.755973
     82 O14        -1.6880   -2.4000    0.3460 o         1 MOL     -0.598155
     83 C27        -2.7860   -5.2560   -0.8910 c3        1 MOL      0.511052
     84 C28        -3.7610   -6.3970   -0.9500 c3        1 MOL     -0.447143
     85 O15        -3.0380   -4.3480   -1.9430 oh        1 MOL     -0.694123
     86 H35        -4.3300   -2.7980    0.1610 hn        1 MOL      0.128399
     87 H36        -2.8580   -5.1510    1.2250 h1        1 MOL      0.087698
     88 H37        -1.8040   -5.6960   -1.0400 h1        1 MOL     -0.005543
     89 H38        -3.6820   -3.6830   -1.7000 ho        1 MOL      0.470370
     90 H39        -3.2590   -7.2640   -1.3770 hc        1 MOL      0.111580
     91 H40        -4.0950   -6.6530    0.0590 hc        1 MOL      0.111580
     92 H41        -4.6190   -6.1070   -1.5570 hc        1 MOL      0.111580
     93 N9         -0.4110   -4.1890    0.8460 n         1 MOL     -0.788881
     94 C29         0.8310   -3.4630    1.3360 c3        1 MOL      0.137363
     95 C30         2.0420   -3.9530    0.4450 c         1 MOL      0.543610
     96 O16         2.5060   -5.1220    0.4830 o         1 MOL     -0.556377
     97 C31         1.1250   -3.7860    2.7820 c3        1 MOL      0.267894
     98 C32        -0.0750   -3.6440    3.7110 c3        1 MOL      0.083647
     99 C33         2.1680   -2.7420    3.2730 c3        1 MOL     -0.587286
    100 C34         0.1560   -4.1710    5.0860 c3        1 MOL     -0.305175
    101 H42        -0.4410   -5.1960    0.9240 hn        1 MOL      0.326894
    102 H43         0.6140   -2.3920    1.3690 h1        1 MOL      0.095543
    103 H44         1.4920   -4.8070    2.8380 hc        1 MOL     -0.033494
    104 H45        -0.9740   -4.1080    3.3100 hc        1 MOL      0.012320
    105 H46        -0.3520   -2.5920    3.7210 hc        1 MOL      0.012320
    106 H47         1.7330   -1.7460    3.3850 hc        1 MOL      0.109704
    107 H48         2.8040   -3.0250    4.1200 hc        1 MOL      0.109704
    108 H49         2.9200   -2.6330    2.4940 hc        1 MOL      0.109704
    109 H50        -0.7640   -4.4150    5.6240 hc        1 MOL      0.075275
    110 H51         0.6970   -5.1130    5.0210 hc        1 MOL      0.075275
    111 H52         0.7520   -3.4730    5.6790 hc        1 MOL      0.075275
    112 N10         2.4520   -2.9780   -0.3380 n         1 MOL     -0.249548
    113 C35         3.6090   -3.0800   -1.2810 c3        1 MOL     -0.060853
    114 C36         4.8740   -2.8240   -0.4410 c         1 MOL      0.317543
    115 O17         4.9030   -2.2060    0.6350 o         1 MOL     -0.312982
    116 C37         3.5190   -2.0740   -2.3760 c3        1 MOL      0.273866
    117 C38         2.4400   -2.5030   -3.3090 c3        1 MOL     -0.188808
    118 O18         3.3290   -0.7460   -1.9350 oh        1 MOL     -0.606245
    119 H53         2.0150   -2.0710   -0.2860 hn        1 MOL      0.227425
    120 H54         3.5730   -4.0950   -1.6780 h1        1 MOL      0.093894
    121 H55         4.4600   -2.1400   -2.9130 h1        1 MOL      0.015759
    122 H56         2.4050   -0.7640   -1.6670 ho        1 MOL      0.430059
    123 H57         2.8520   -3.3310   -3.9010 hc        1 MOL      0.045974
    124 H58         1.5850   -2.8440   -2.7280 hc        1 MOL      0.045974
    125 H59         2.0780   -1.7970   -4.0520 hc        1 MOL      0.045974
    126 N11         6.0990   -3.1420   -1.0090 n         1 MOL     -0.281224
    127 C39         7.4170   -2.7820   -0.4190 c3        1 MOL     -0.167413
    128 C40         7.5910   -1.2960   -0.1160 c         1 MOL      0.282755
    129 O19         8.2470   -0.8970    0.8440 o         1 MOL     -0.474890
    130 C41         8.4970   -3.2780   -1.3380 c3        1 MOL      0.352621
    131 C42         8.6470   -4.8160   -1.4560 c3        1 MOL     -0.520942
    132 O20         8.3020   -2.7850   -2.7020 oh        1 MOL     -0.589528
    133 H60         5.9810   -3.6730   -1.8600 hn        1 MOL      0.252752
    134 H61         7.4750   -3.2720    0.5470 h1        1 MOL      0.164933
    135 H62         9.4740   -2.9380   -0.9900 h1        1 MOL      0.054319
    136 H63         8.7730   -1.9500   -2.7900 ho        1 MOL      0.364329
    137 H64         8.5480   -5.3620   -0.5230 hc        1 MOL      0.152989
    138 H65         7.8740   -5.2580   -2.0820 hc        1 MOL      0.152989
    139 H66         9.6040   -4.9630   -1.9650 hc        1 MOL      0.152989
    140 N12         7.1310   -0.3590   -0.9470 n         1 MOL     -0.186060
    141 C43         7.2280    1.0970   -0.7090 c3        1 MOL     -0.022702
    142 C44         6.3750    1.5750    0.4190 c         1 MOL      0.408445
    143 O21         6.7730    2.5020    1.1100 o         1 MOL     -0.508751
    144 C45         6.7240    1.7870   -1.9770 c3        1 MOL     -0.171291
    145 C46         6.5430    3.3500   -1.9750 c3        1 MOL     -0.184281
    146 C47         7.7250    4.3090   -2.1120 c3        1 MOL     -0.013928
    147 C48         8.1330    4.5030   -3.5140 c3        1 MOL      0.062571
    148 N13         9.3690    5.2740   -3.7570 n4        1 MOL     -0.290275
    149 H67         6.7900   -0.7290   -1.8170 hn        1 MOL      0.195282
    150 H68         8.2690    1.3850   -0.5610 h1        1 MOL      0.115276
    151 H69         5.7720    1.3780   -2.3230 hc        1 MOL      0.073563
    152 H70         7.4180    1.4730   -2.7610 hc        1 MOL      0.073563
    153 H71         6.1310    3.5820   -1.0010 hc        1 MOL      0.101926
    154 H72         5.7710    3.6330   -2.6990 hc        1 MOL      0.101926
    155 H73         8.5470    3.9270   -1.5020 hc        1 MOL      0.048195
    156 H74         7.3920    5.2280   -1.6280 hc        1 MOL      0.048195
    157 H75         7.3310    5.0030   -4.0530 hx        1 MOL      0.065409
    158 H76         8.3230    3.4990   -3.8930 hx        1 MOL      0.065409
    159 H77         9.5260    5.4560   -4.7380 hn        1 MOL      0.276653
    160 H78         9.4400    6.1810   -3.3060 hn        1 MOL      0.276653
    161 H79        10.1170    4.6780   -3.4270 hn        1 MOL      0.276653
    162 N14         5.2270    0.8600    0.6160 n         1 MOL     -0.117045
    163 C49         4.2480    1.1340    1.7080 c3        1 MOL     -0.250736
    164 C50         4.8360    0.6820    3.0350 c         1 MOL      0.515599
    165 O22         4.6540    1.3240    4.0680 o         1 MOL     -0.569754
    166 C51         2.8710    0.5400    1.4930 c3        1 MOL      0.189132
    167 C52         2.1180    1.2510    0.3770 c3        1 MOL     -0.277767
    168 C53         0.7390    0.6500   -0.0570 c         1 MOL      0.744491
    169 O23         0.7620   -0.4910   -0.6310 o         1 MOL     -0.717610
    170 O24        -0.3920    1.3060   -0.0290 o         1 MOL     -0.717610
    171 H80         5.0850    0.0330    0.0510 hn        1 MOL      0.160139
    172 H81         4.1380    2.2150    1.7960 h1        1 MOL      0.122914
    173 H82         2.3700    0.6130    2.4600 hc        1 MOL      0.021299
    174 H83         2.9150   -0.5260    1.2870 hc        1 MOL      0.021299
    175 H84         2.7320    1.2880   -0.5230 hc        1 MOL      0.056746
    176 H85         1.9650    2.2790    0.6720 hc        1 MOL      0.056746
    177 N15         5.5340   -0.4350    3.0630 n         1 MOL     -0.061934
    178 C54         6.4350   -0.8310    4.0800 c3        1 MOL     -0.378434
    179 H86         7.2430   -1.4160    3.6400 h1        1 MOL      0.130277
    180 H87         6.8500    0.0520    4.5630 h1        1 MOL      0.130277
    181 H88         5.9080   -1.4370    4.8170 h1        1 MOL      0.130277
    182 H89         5.6150   -0.9270    2.1900 hn        1 MOL      0.159005
    183 Ca1        -1.8520   -0.1860   -1.4220 Ca        1 MOL      1.685200
    184 O25        -1.1560   -2.4110   -2.8970 oh        1 MOL     -0.807167
    185 H90        -0.7900   -2.5790   -3.7640 ho        1 MOL      0.385527
    186 H91        -1.5750   -3.2350   -2.6510 ho        1 MOL      0.385527
    187 O26        -0.0460    0.1580   -3.4250 oh        1 MOL     -0.807167
    188 H92        -0.6390    0.8810   -3.6340 ho        1 MOL      0.385527
    189 H93        -0.2520   -0.5130   -4.0710 ho        1 MOL      0.385527
@<TRIPOS>BOND
     1    1    2 1   
     2    1    4 1   
     3    1    5 1   
     4    1    6 1   
     5    2    3 2   
     6    2    7 1   
     7    7    8 1   
     8    7   15 1   
     9    8    9 1   
    10    8   11 1   
    11    8   16 1   
    12    9   10 2   
    13    9   19 1   
    14   11   12 1   
    15   11   17 1   
    16   11   18 1   
    17   12   13 1   
    18   12   14 1   
    19   19   20 1   
    20   19   28 1   
    21   20   21 1   
    22   20   23 1   
    23   20   29 1   
    24   21   22 2   
    25   21   41 1   
    26   23   24 1   
    27   23   30 1   
    28   23   31 1   
    29   24   25 1   
    30   24   32 1   
    31   24   33 1   
    32   25   26 1   
    33   25   34 1   
    34   25   35 1   
    35   26   27 1   
    36   26   36 1   
    37   26   37 1   
    38   27   38 1   
    39   27   39 1   
    40   27   40 1   
    41   41   42 1   
    42   41   49 1   
    43   42   43 1   
    44   42   45 1   
    45   42   50 1   
    46   43   44 2   
    47   43   53 1   
    48   45   46 1   
    49   45   51 1   
    50   45   52 1   
    51   46   47 1   
    52   46   48 1   
    53   53   54 1   
    54   53   57 1   
    55   54   55 1   
    56   54   58 1   
    57   54   59 1   
    58   55   56 2   
    59   55   60 1   
    60   60   61 1   
    61   60   68 1   
    62   61   62 1   
    63   61   64 1   
    64   61   69 1   
    65   62   63 2   
    66   62   72 1   
    67   64   65 1   
    68   64   70 1   
    69   64   71 1   
    70   65   66 1   
    71   65   67 1   
    72   72   73 1   
    73   72   76 1   
    74   73   74 1   
    75   73   77 1   
    76   73   78 1   
    77   74   75 2   
    78   74   79 1   
    79   79   80 1   
    80   79   86 1   
    81   80   81 1   
    82   80   83 1   
    83   80   87 1   
    84   81   82 2   
    85   81   93 1   
    86   83   84 1   
    87   83   85 1   
    88   83   88 1   
    89   84   90 1   
    90   84   91 1   
    91   84   92 1   
    92   85   89 1   
    93   93   94 1   
    94   93  101 1   
    95   94   95 1   
    96   94   97 1   
    97   94  102 1   
    98   95   96 2   
    99   95  112 1   
   100   97   98 1   
   101   97   99 1   
   102   97  103 1   
   103   98  100 1   
   104   98  104 1   
   105   98  105 1   
   106   99  106 1   
   107   99  107 1   
   108   99  108 1   
   109  100  109 1   
   110  100  110 1   
   111  100  111 1   
   112  112  113 1   
   113  112  119 1   
   114  113  114 1   
   115  113  116 1   
   116  113  120 1   
   117  114  115 2   
   118  114  126 1   
   119  116  117 1   
   120  116  118 1   
   121  116  121 1   
   122  117  123 1   
   123  117  124 1   
   124  117  125 1   
   125  118  122 1   
   126  126  127 1   
   127  126  133 1   
   128  127  128 1   
   129  127  130 1   
   130  127  134 1   
   131  128  129 2   
   132  128  140 1   
   133  130  131 1   
   134  130  132 1   
   135  130  135 1   
   136  131  137 1   
   137  131  138 1   
   138  131  139 1   
   139  132  136 1   
   140  140  141 1   
   141  140  149 1   
   142  141  142 1   
   143  141  144 1   
   144  141  150 1   
   145  142  143 2   
   146  142  162 1   
   147  144  145 1   
   148  144  151 1   
   149  144  152 1   
   150  145  146 1   
   151  145  153 1   
   152  145  154 1   
   153  146  147 1   
   154  146  155 1   
   155  146  156 1   
   156  147  148 1   
   157  147  157 1   
   158  147  158 1   
   159  148  159 1   
   160  148  160 1   
   161  148  161 1   
   162  162  163 1   
   163  162  171 1   
   164  163  164 1   
   165  163  166 1   
   166  163  172 1   
   167  164  165 2   
   168  164  177 1   
   169  166  167 1   
   170  166  173 1   
   171  166  174 1   
   172  167  168 1   
   173  167  175 1   
   174  167  176 1   
   175  168  169 1   
   176  168  170 1   
   177  177  178 1   
   178  177  182 1   
   179  178  179 1   
   180  178  180 1   
   181  178  181 1   
   182  184  185 1   
   183  184  186 1   
   184  187  188 1   
   185  187  189 1   
@<TRIPOS>SUBSTRUCTURE
     1 MOL         1 TEMP              0 ****  ****    0 ROOT
