@<TRIPOS>MOLECULE
MOL
  186   183     1     0     0
SMALL
resp


@<TRIPOS>ATOM
      1 C1          0.6660    2.7290    5.3370 c3        1 MOL     -0.352347
      2 C2         -0.0330    2.6580    3.9970 c         1 MOL      0.735484
      3 O1          0.5400    3.1250    2.9560 o         1 MOL     -0.650919
      4 H1          1.5520    2.0940    5.3180 hc        1 MOL      0.091059
      5 H2          0.9610    3.7580    5.5400 hc        1 MOL      0.091059
      6 H3         -0.0110    2.3830    6.1190 hc        1 MOL      0.091059
      7 N1         -1.2600    2.1390    3.9320 n         1 MOL     -0.568991
      8 C3         -1.9000    1.8280    2.6750 c3        1 MOL      0.162660
      9 C4         -2.5190    3.0480    2.0210 c         1 MOL      0.455295
     10 O2         -3.3600    3.7580    2.5860 o         1 MOL     -0.576688
     11 C5         -2.9090    0.7050    2.8560 c3        1 MOL     -0.231995
     12 C6         -3.4900    0.1300    1.5560 c         1 MOL      0.847598
     13 O3         -4.6280   -0.4020    1.6630 o         1 MOL     -0.724383
     14 O4         -2.9800    0.4760    0.4230 o         1 MOL     -0.724383
     15 H4         -1.7360    1.7680    4.7400 hn        1 MOL      0.336066
     16 H5         -1.0850    1.6030    1.9870 h1        1 MOL     -0.023336
     17 H6         -3.6960    1.0480    3.5250 hc        1 MOL      0.055480
     18 H7         -2.4430   -0.1690    3.3100 hc        1 MOL      0.055480
     19 N2         -1.9360    3.4630    0.8900 n         1 MOL     -0.183503
     20 C7         -2.1840    4.7560    0.2230 c3        1 MOL      0.053707
     21 C8         -3.2880    4.6550   -0.9070 c         1 MOL      0.373180
     22 O5         -3.8970    5.6590   -1.1560 o         1 MOL     -0.545208
     23 C9         -0.9070    5.3620   -0.3400 c3        1 MOL      0.012752
     24 C10         0.2210    5.7620    0.6600 c3        1 MOL      0.089482
     25 C11        -0.2370    6.3280    2.0320 c3        1 MOL      0.019596
     26 C12         0.8240    7.1610    2.7110 c3        1 MOL      0.127310
     27 N3          0.4570    7.5730    4.0460 n4        1 MOL     -0.517487
     28 H8         -1.3120    2.7580    0.5130 hn        1 MOL      0.257534
     29 H9         -2.5570    5.5330    0.9020 h1        1 MOL      0.043219
     30 H10        -1.2180    6.2770   -0.8310 hc        1 MOL     -0.009822
     31 H11        -0.5190    4.6720   -1.0890 hc        1 MOL     -0.009822
     32 H12         0.8320    6.5450    0.2060 hc        1 MOL     -0.029248
     33 H13         0.8080    4.8590    0.7760 hc        1 MOL     -0.029248
     34 H14        -0.5160    5.4780    2.6540 hc        1 MOL      0.007018
     35 H15        -1.0500    7.0220    1.8050 hc        1 MOL      0.007018
     36 H16         1.0850    8.0000    2.0750 hx        1 MOL      0.053131
     37 H17         1.8120    6.7150    2.6220 hx        1 MOL      0.053131
     38 H18         1.1830    8.2050    4.3710 hn        1 MOL      0.368334
     39 H19        -0.3680    8.1530    4.1130 hn        1 MOL      0.368334
     40 H20         0.3690    6.7550    4.6370 hn        1 MOL      0.368334
     41 N4         -3.4390    3.5420   -1.5480 n         1 MOL     -0.148089
     42 C13        -4.4800    3.4150   -2.6010 c3        1 MOL     -0.057370
     43 C14        -5.7530    2.7760   -2.0240 c         1 MOL      0.452502
     44 O6         -6.8070    2.8660   -2.6540 o         1 MOL     -0.523147
     45 C15        -4.0240    2.5840   -3.8240 c3        1 MOL     -0.183431
     46 C16        -3.3860    1.2640   -3.3420 c         1 MOL      0.779375
     47 O7         -2.2060    1.0900   -3.6680 o         1 MOL     -0.797127
     48 O8         -3.7990    0.5600   -2.4170 o         1 MOL     -0.797127
     49 H21        -2.8180    2.8270   -1.1820 hn        1 MOL      0.169317
     50 H22        -4.7950    4.3630   -3.0370 h1        1 MOL      0.113862
     51 H23        -3.2940    3.1020   -4.4450 hc        1 MOL      0.059529
     52 H24        -4.8400    2.3370   -4.5070 hc        1 MOL      0.059529
     53 N5         -5.7110    2.2630   -0.7870 n         1 MOL     -0.205196
     54 C17        -6.8880    1.7220   -0.1080 c3        1 MOL     -0.318796
     55 C18        -7.3320    0.3900   -0.6560 c         1 MOL      0.478504
     56 O9         -8.5560    0.0090   -0.5890 o         1 MOL     -0.598496
     57 H25        -4.8400    2.2400   -0.2810 hn        1 MOL      0.203758
     58 H26        -7.6120    2.5330   -0.1530 h1        1 MOL      0.158874
     59 H27        -6.6960    1.5660    0.9580 h1        1 MOL      0.158874
     60 N6         -6.4810   -0.4160   -1.2620 n         1 MOL     -0.117502
     61 C19        -6.8170   -1.7930   -1.6870 c3        1 MOL     -0.105415
     62 C20        -6.6980   -2.8920   -0.5860 c         1 MOL      0.463738
     63 O10        -7.1020   -4.0740   -0.7680 o         1 MOL     -0.552240
     64 C21        -5.9020   -2.2400   -2.8100 c3        1 MOL     -0.063446
     65 C22        -4.3900   -2.3360   -2.5150 c         1 MOL      0.857870
     66 O11        -3.9980   -2.5060   -1.2920 o         1 MOL     -0.734012
     67 O12        -3.5680   -2.4020   -3.4250 o         1 MOL     -0.734012
     68 H28        -5.5480   -0.0460   -1.3310 hn        1 MOL      0.170384
     69 H29        -7.8490   -1.8960   -2.0280 h1        1 MOL      0.133409
     70 H30        -5.9400   -1.5000   -3.6100 hc        1 MOL      0.012275
     71 H31        -6.2800   -3.1650   -3.2300 hc        1 MOL      0.012275
     72 N7         -6.2780   -2.5370    0.6310 n         1 MOL     -0.279382
     73 C23        -6.2880   -3.4570    1.7680 c3        1 MOL     -0.102229
     74 C24        -4.9990   -4.2870    1.8910 c         1 MOL      0.486422
     75 O13        -5.0480   -5.2820    2.5910 o         1 MOL     -0.552371
     76 H32        -5.9220   -1.6100    0.8180 hn        1 MOL      0.292150
     77 H33        -7.1330   -4.1490    1.7350 h1        1 MOL      0.075967
     78 H34        -6.3870   -2.9050    2.7040 h1        1 MOL      0.075967
     79 N8         -3.9570   -3.7930    1.2130 n         1 MOL      0.003250
     80 C25        -2.6210   -4.3900    1.1480 c3        1 MOL     -0.623340
     81 C26        -1.5030   -3.3840    1.0480 c         1 MOL      0.806643
     82 O14        -1.5890   -2.3070    0.4040 o         1 MOL     -0.804531
     83 C27        -2.4410   -5.3520   -0.0290 c3        1 MOL      0.786894
     84 C28        -3.3230   -6.5650    0.0960 c3        1 MOL     -0.600307
     85 O15        -2.6850   -4.7420   -1.2740 oh        1 MOL     -0.714115
     86 H35        -4.0930   -2.9720    0.6400 hn        1 MOL      0.100060
     87 H36        -2.3900   -5.0150    2.0120 h1        1 MOL      0.156382
     88 H37        -1.3850   -5.6280    0.0160 h1        1 MOL     -0.111999
     89 H38        -3.2440   -3.9650   -1.1670 ho        1 MOL      0.383445
     90 H39        -2.8220   -7.2590   -0.5880 hc        1 MOL      0.146604
     91 H40        -3.2360   -6.8270    1.1500 hc        1 MOL      0.146604
     92 H41        -4.3500   -6.3560   -0.1740 hc        1 MOL      0.146604
     93 N9         -0.3740   -3.6300    1.7710 n         1 MOL     -0.374722
     94 C29         0.9060   -2.8640    1.9030 c3        1 MOL      0.026750
     95 C30         2.0600   -3.4890    1.1540 c         1 MOL      0.321885
     96 O16         2.3590   -4.6500    1.5010 o         1 MOL     -0.505083
     97 C31         1.1550   -2.6750    3.4630 c3        1 MOL      0.069285
     98 C32         0.0680   -1.9440    4.2110 c3        1 MOL      0.267356
     99 C33         2.5330   -1.9700    3.6640 c3        1 MOL     -0.386493
    100 C34         0.1400   -1.9040    5.7920 c3        1 MOL     -0.257487
    101 H42        -0.5070   -4.3600    2.4600 hn        1 MOL      0.217984
    102 H43         0.5690   -1.9490    1.4030 h1        1 MOL      0.061912
    103 H44         1.2140   -3.6440    3.9700 hc        1 MOL      0.049557
    104 H45        -0.8850   -2.4270    3.9870 hc        1 MOL     -0.063172
    105 H46        -0.1430   -0.9220    3.8770 hc        1 MOL     -0.063172
    106 H47         2.5990   -1.6120    4.6950 hc        1 MOL      0.085228
    107 H48         3.2520   -2.7690    3.4890 hc        1 MOL      0.085228
    108 H49         2.6770   -1.1500    2.9580 hc        1 MOL      0.085228
    109 H50         0.0860   -2.9120    6.2150 hc        1 MOL      0.055054
    110 H51         1.0500   -1.4550    6.1800 hc        1 MOL      0.055054
    111 H52        -0.6710   -1.2290    6.0220 hc        1 MOL      0.055054
    112 N10         2.6850   -2.7890    0.1610 n         1 MOL      0.023726
    113 C35         3.8080   -3.1600   -0.6880 c3        1 MOL     -0.013159
    114 C36         5.1200   -2.5760   -0.0880 c         1 MOL      0.116671
    115 O17         5.0980   -1.7550    0.8270 o         1 MOL     -0.189497
    116 C37         3.5790   -2.5600   -2.1020 c3        1 MOL      0.344895
    117 C38         2.3370   -3.0980   -2.8160 c3        1 MOL     -0.253149
    118 O18         3.4340   -1.1890   -1.9070 oh        1 MOL     -0.621043
    119 H53         2.3150   -1.8660   -0.0390 hn        1 MOL      0.091434
    120 H54         3.9440   -4.2320   -0.8120 h1        1 MOL      0.043813
    121 H55         4.5120   -2.7710   -2.6180 h1        1 MOL      0.001672
    122 H56         2.5770   -0.9210   -1.5630 ho        1 MOL      0.404446
    123 H57         2.2050   -2.3600   -3.6050 hc        1 MOL      0.051634
    124 H58         2.6520   -4.0570   -3.2170 hc        1 MOL      0.051634
    125 H59         1.4400   -3.0740   -2.2000 hc        1 MOL      0.051634
    126 N11         6.2600   -3.0960   -0.5540 n         1 MOL     -0.076724
    127 C39         7.5870   -2.5910   -0.2230 c3        1 MOL     -0.476267
    128 C40         7.6750   -1.0710   -0.4990 c         1 MOL      0.629570
    129 O19         8.2830   -0.3880    0.2800 o         1 MOL     -0.485436
    130 C41         8.7870   -3.0740   -1.0270 c3        1 MOL      0.332802
    131 C42         9.1540   -4.5220   -0.7450 c3        1 MOL     -0.277018
    132 O20         8.4440   -3.0250   -2.3810 oh        1 MOL     -0.621599
    133 H60         6.2330   -3.8440   -1.2320 hn        1 MOL      0.267223
    134 H61         7.8180   -2.8590    0.8070 h1        1 MOL      0.207525
    135 H62         9.6170   -2.4010   -0.8260 h1        1 MOL      0.048621
    136 H63         9.2840   -3.1260   -2.8340 ho        1 MOL      0.405407
    137 H64         8.3130   -5.1820   -0.9560 hc        1 MOL      0.080631
    138 H65        10.0070   -4.8210   -1.3480 hc        1 MOL      0.080631
    139 H66         9.5000   -4.6940    0.2710 hc        1 MOL      0.080631
    140 N12         6.8840   -0.5320   -1.4700 n         1 MOL     -0.458679
    141 C43         6.7170    0.8900   -1.6370 c3        1 MOL     -0.066136
    142 C44         6.0940    1.5640   -0.4420 c         1 MOL      0.329029
    143 O21         6.6780    2.5300    0.0270 o         1 MOL     -0.495141
    144 C45         5.8700    1.1040   -2.8960 c3        1 MOL      0.074655
    145 C46         5.8730    2.5620   -3.3940 c3        1 MOL     -0.028393
    146 C47         5.1630    2.6220   -4.7730 c3        1 MOL     -0.215259
    147 C48         5.0470    4.0760   -5.3140 c3        1 MOL      0.067333
    148 N13         3.9230    4.8090   -4.7370 n4        1 MOL     -0.387226
    149 H67         6.3330   -1.1350   -2.0770 hn        1 MOL      0.271402
    150 H68         7.7050    1.3610   -1.6990 h1        1 MOL      0.123628
    151 H69         4.8420    0.8300   -2.6930 hc        1 MOL      0.010200
    152 H70         6.1670    0.5310   -3.7740 hc        1 MOL      0.010200
    153 H71         6.9320    2.7980   -3.4710 hc        1 MOL      0.022823
    154 H72         5.3920    3.2500   -2.7010 hc        1 MOL      0.022823
    155 H73         4.2480    2.0340   -4.8450 hc        1 MOL      0.106404
    156 H74         5.8660    2.0760   -5.4010 hc        1 MOL      0.106404
    157 H75         4.8040    3.9640   -6.3720 hx        1 MOL      0.084404
    158 H76         5.9300    4.7130   -5.2590 hx        1 MOL      0.084404
    159 H77         3.1770    4.1360   -4.6060 hn        1 MOL      0.343857
    160 H78         4.2750    5.1460   -3.8520 hn        1 MOL      0.343857
    161 H79         3.6020    5.5780   -5.3140 hn        1 MOL      0.343857
    162 N14         4.9470    1.0250    0.0900 n         1 MOL     -0.019849
    163 C49         4.0610    1.5730    1.1660 c3        1 MOL     -0.212162
    164 C50         4.6150    1.4160    2.5670 c         1 MOL      0.488803
    165 O22         4.4890    2.2180    3.4390 o         1 MOL     -0.564223
    166 C51         2.6950    1.0760    0.9420 c3        1 MOL      0.202043
    167 C52         1.9800    1.6910   -0.3310 c3        1 MOL     -0.188713
    168 C53         0.7470    0.9000   -0.7400 c         1 MOL      0.641190
    169 O23        -0.3500    1.4690   -0.8580 o         1 MOL     -0.672248
    170 O24         0.8210   -0.3410   -0.8500 o         1 MOL     -0.672248
    171 H80         4.7620    0.0810   -0.2180 hn        1 MOL      0.133097
    172 H81         4.0830    2.6630    1.0160 h1        1 MOL      0.083388
    173 H82         2.0880    1.1910    1.8340 hc        1 MOL      0.026130
    174 H83         2.7620   -0.0120    0.8870 hc        1 MOL      0.026130
    175 H84         2.7180    1.7120   -1.1340 hc        1 MOL      0.004834
    176 H85         1.6240    2.7030   -0.1540 hc        1 MOL      0.004834
    177 N15         5.2450    0.2590    2.8100 n         1 MOL     -0.007327
    178 C54         6.0690   -0.1320    3.9760 c3        1 MOL     -0.308446
    179 H86         6.8380   -0.8340    3.6570 h1        1 MOL      0.112285
    180 H87         6.5400    0.7550    4.4020 h1        1 MOL      0.112285
    181 H88         5.4350   -0.6020    4.7270 h1        1 MOL      0.112285
    182 H89         5.2270   -0.4390    2.0830 hn        1 MOL      0.006622
    183 Ca1        -1.7750   -0.7110   -1.5680 Ca        1 MOL      1.787918
    184 O25        -0.3230   -1.4260   -3.7570 oh        1 MOL     -0.830308
    185 H90         0.3930   -1.1720   -4.3470 ho        1 MOL      0.419876
    186 H91        -0.7230   -2.1810   -4.1880 ho        1 MOL      0.419876
@<TRIPOS>BOND
     1    1    2 1   
     2    1    4 1   
     3    1    5 1   
     4    1    6 1   
     5    2    3 2   
     6    2    7 1   
     7    7    8 1   
     8    7   15 1   
     9    8    9 1   
    10    8   11 1   
    11    8   16 1   
    12    9   10 2   
    13    9   19 1   
    14   11   12 1   
    15   11   17 1   
    16   11   18 1   
    17   12   13 1   
    18   12   14 1   
    19   19   20 1   
    20   19   28 1   
    21   20   21 1   
    22   20   23 1   
    23   20   29 1   
    24   21   22 2   
    25   21   41 1   
    26   23   24 1   
    27   23   30 1   
    28   23   31 1   
    29   24   25 1   
    30   24   32 1   
    31   24   33 1   
    32   25   26 1   
    33   25   34 1   
    34   25   35 1   
    35   26   27 1   
    36   26   36 1   
    37   26   37 1   
    38   27   38 1   
    39   27   39 1   
    40   27   40 1   
    41   41   42 1   
    42   41   49 1   
    43   42   43 1   
    44   42   45 1   
    45   42   50 1   
    46   43   44 2   
    47   43   53 1   
    48   45   46 1   
    49   45   51 1   
    50   45   52 1   
    51   46   47 1   
    52   46   48 1   
    53   53   54 1   
    54   53   57 1   
    55   54   55 1   
    56   54   58 1   
    57   54   59 1   
    58   55   56 2   
    59   55   60 1   
    60   60   61 1   
    61   60   68 1   
    62   61   62 1   
    63   61   64 1   
    64   61   69 1   
    65   62   63 2   
    66   62   72 1   
    67   64   65 1   
    68   64   70 1   
    69   64   71 1   
    70   65   66 1   
    71   65   67 1   
    72   72   73 1   
    73   72   76 1   
    74   73   74 1   
    75   73   77 1   
    76   73   78 1   
    77   74   75 2   
    78   74   79 1   
    79   79   80 1   
    80   79   86 1   
    81   80   81 1   
    82   80   83 1   
    83   80   87 1   
    84   81   82 2   
    85   81   93 1   
    86   83   84 1   
    87   83   85 1   
    88   83   88 1   
    89   84   90 1   
    90   84   91 1   
    91   84   92 1   
    92   85   89 1   
    93   93   94 1   
    94   93  101 1   
    95   94   95 1   
    96   94   97 1   
    97   94  102 1   
    98   95   96 2   
    99   95  112 1   
   100   97   98 1   
   101   97   99 1   
   102   97  103 1   
   103   98  100 1   
   104   98  104 1   
   105   98  105 1   
   106   99  106 1   
   107   99  107 1   
   108   99  108 1   
   109  100  109 1   
   110  100  110 1   
   111  100  111 1   
   112  112  113 1   
   113  112  119 1   
   114  113  114 1   
   115  113  116 1   
   116  113  120 1   
   117  114  115 2   
   118  114  126 1   
   119  116  117 1   
   120  116  118 1   
   121  116  121 1   
   122  117  123 1   
   123  117  124 1   
   124  117  125 1   
   125  118  122 1   
   126  126  127 1   
   127  126  133 1   
   128  127  128 1   
   129  127  130 1   
   130  127  134 1   
   131  128  129 2   
   132  128  140 1   
   133  130  131 1   
   134  130  132 1   
   135  130  135 1   
   136  131  137 1   
   137  131  138 1   
   138  131  139 1   
   139  132  136 1   
   140  140  141 1   
   141  140  149 1   
   142  141  142 1   
   143  141  144 1   
   144  141  150 1   
   145  142  143 2   
   146  142  162 1   
   147  144  145 1   
   148  144  151 1   
   149  144  152 1   
   150  145  146 1   
   151  145  153 1   
   152  145  154 1   
   153  146  147 1   
   154  146  155 1   
   155  146  156 1   
   156  147  148 1   
   157  147  157 1   
   158  147  158 1   
   159  148  159 1   
   160  148  160 1   
   161  148  161 1   
   162  162  163 1   
   163  162  171 1   
   164  163  164 1   
   165  163  166 1   
   166  163  172 1   
   167  164  165 2   
   168  164  177 1   
   169  166  167 1   
   170  166  173 1   
   171  166  174 1   
   172  167  168 1   
   173  167  175 1   
   174  167  176 1   
   175  168  169 1   
   176  168  170 1   
   177  177  178 1   
   178  177  182 1   
   179  178  179 1   
   180  178  180 1   
   181  178  181 1   
   182  184  185 1   
   183  184  186 1   
@<TRIPOS>SUBSTRUCTURE
     1 MOL         1 TEMP              0 ****  ****    0 ROOT
