@<TRIPOS>MOLECULE
MOL
  179   176     1     0     0
SMALL
resp


@<TRIPOS>ATOM
      1 C1          2.7940    3.1540    4.4700 c3        1 MOL     -0.212817
      2 C2          2.1350    3.1430    3.1160 c         1 MOL      0.732811
      3 O1          2.7080    3.1450    2.0370 o         1 MOL     -0.616916
      4 H1          3.8760    3.1010    4.3480 hc        1 MOL      0.047375
      5 H2          2.5320    4.0730    4.9950 hc        1 MOL      0.047375
      6 H3          2.4530    2.2950    5.0480 hc        1 MOL      0.047375
      7 N1          0.8180    3.0720    3.1870 n         1 MOL     -0.642747
      8 C3         -0.1390    2.9730    2.1320 c3        1 MOL      0.184662
      9 C4         -0.3830    4.3550    1.4930 c         1 MOL      0.525570
     10 O2         -1.4040    4.9730    1.7720 o         1 MOL     -0.494868
     11 C5         -1.3550    2.3450    2.6920 c3        1 MOL      0.005073
     12 C6         -2.3380    1.8870    1.5800 c         1 MOL      0.566912
     13 O3         -3.5890    1.9480    1.7420 o         1 MOL     -0.675916
     14 O4         -1.9750    1.6090    0.4180 o         1 MOL     -0.675916
     15 H4          0.4120    3.0690    4.1080 hn        1 MOL      0.307885
     16 H5          0.4080    2.3750    1.4010 h1        1 MOL      0.071041
     17 H6         -1.8620    3.0870    3.3000 hc        1 MOL     -0.003531
     18 H7         -1.0170    1.4720    3.2550 hc        1 MOL     -0.003531
     19 N2          0.6060    4.8240    0.6930 n         1 MOL     -0.525242
     20 C7          0.6250    6.1720    0.0630 c3        1 MOL     -0.012734
     21 C8         -0.2130    6.2280   -1.2280 c         1 MOL      0.402509
     22 O5         -0.6330    7.2760   -1.7020 o         1 MOL     -0.509171
     23 C9          2.1020    6.4840   -0.3440 c3        1 MOL     -0.198227
     24 C10         3.0400    6.8330    0.8460 c3        1 MOL      0.432622
     25 C11         4.5220    7.1040    0.3110 c3        1 MOL     -0.166707
     26 C12         5.6240    7.0160    1.4030 c3        1 MOL     -0.005449
     27 N3          5.3470    7.8350    2.5680 n4        1 MOL     -0.256276
     28 H8          1.3920    4.2080    0.5430 hn        1 MOL      0.399346
     29 H9          0.1710    6.8620    0.7660 h1        1 MOL      0.115538
     30 H10         2.2110    7.3700   -0.9610 hc        1 MOL      0.069269
     31 H11         2.4290    5.6090   -0.9070 hc        1 MOL      0.069269
     32 H12         3.0990    6.0300    1.5920 hc        1 MOL     -0.117019
     33 H13         2.6440    7.7380    1.2980 hc        1 MOL     -0.117019
     34 H14         4.6010    8.0570   -0.2140 hc        1 MOL      0.065532
     35 H15         4.7570    6.2700   -0.3470 hc        1 MOL      0.065532
     36 H16         6.4130    7.5680    0.8940 hx        1 MOL      0.102601
     37 H17         5.9410    5.9990    1.6470 hx        1 MOL      0.102601
     38 H18         5.1700    8.7730    2.2620 hn        1 MOL      0.298134
     39 H19         4.5860    7.5330    3.1620 hn        1 MOL      0.298134
     40 H20         6.1370    7.9260    3.1890 hn        1 MOL      0.298134
     41 N4         -0.3690    5.0740   -1.9010 n         1 MOL     -0.253313
     42 C13        -1.4540    4.9890   -2.9130 c3        1 MOL     -0.055814
     43 C14        -2.8660    5.0030   -2.2270 c         1 MOL      0.486130
     44 O6         -3.8030    5.4760   -2.8230 o         1 MOL     -0.530203
     45 C15        -1.3230    3.7770   -3.7030 c3        1 MOL     -0.128277
     46 C16        -1.2540    2.4540   -2.9440 c         1 MOL      0.723998
     47 O7         -0.1230    2.1240   -2.5100 o         1 MOL     -0.735348
     48 O8         -2.1940    1.7210   -2.7440 o         1 MOL     -0.735348
     49 H21         0.0290    4.2350   -1.5060 hn        1 MOL      0.207203
     50 H22        -1.3960    5.8880   -3.5260 h1        1 MOL      0.119009
     51 H23        -0.3520    3.7700   -4.1970 hc        1 MOL      0.038442
     52 H24        -2.0540    3.6820   -4.5080 hc        1 MOL      0.038442
     53 N5         -3.0060    4.5730   -0.9390 n         1 MOL     -0.085295
     54 C17        -4.2330    4.6720   -0.1390 c3        1 MOL     -0.215865
     55 C18        -5.2750    3.5880   -0.5340 c         1 MOL      0.603389
     56 O9         -6.3960    4.0420   -0.6040 o         1 MOL     -0.602359
     57 H25        -2.1430    4.3040   -0.4940 hn        1 MOL      0.091019
     58 H26        -4.6940    5.6620   -0.2260 h1        1 MOL      0.116218
     59 H27        -3.9660    4.5460    0.9110 h1        1 MOL      0.116218
     60 N6         -4.9050    2.3860   -0.8230 n         1 MOL     -0.136285
     61 C19        -5.8530    1.4780   -1.4110 c3        1 MOL     -0.113904
     62 C20        -6.3380    0.4370   -0.3910 c         1 MOL      0.210661
     63 O10        -7.1140   -0.4500   -0.7100 o         1 MOL     -0.415387
     64 C21        -5.3460    0.7360   -2.6770 c3        1 MOL     -0.030077
     65 C22        -4.5570   -0.5130   -2.2700 c         1 MOL      0.329017
     66 N7         -4.9590   -1.6210   -2.8700 n         1 MOL     -0.618217
     67 O11        -3.7040   -0.4990   -1.4200 o         1 MOL     -0.350377
     68 H28        -3.9460    2.1270   -0.6330 hn        1 MOL      0.035451
     69 H29        -6.7490    2.0080   -1.7350 h1        1 MOL      0.152385
     70 H30        -4.6370    1.3220   -3.2540 hc        1 MOL      0.065003
     71 H31        -6.1860    0.5300   -3.3410 hc        1 MOL      0.065003
     72 H32        -5.6720   -1.6660   -3.5790 hn        1 MOL      0.328682
     73 H33        -4.5380   -2.5160   -2.6960 hn        1 MOL      0.328682
     74 N8         -5.8770    0.5230    0.8600 n         1 MOL     -0.036205
     75 C23        -6.4430   -0.3370    2.0060 c3        1 MOL     -0.346210
     76 C24        -5.6950   -1.6300    2.2050 c         1 MOL      0.711544
     77 O12        -6.0340   -2.5700    2.9220 o         1 MOL     -0.597849
     78 H34        -5.2270    1.2710    1.0480 hn        1 MOL      0.211090
     79 H35        -7.4530   -0.6140    1.6920 h1        1 MOL      0.140917
     80 H36        -6.4390    0.1350    2.9870 h1        1 MOL      0.140917
     81 N9         -4.5050   -1.7300    1.5850 n         1 MOL     -0.631909
     82 C25        -3.6340   -2.8940    1.5750 c3        1 MOL      0.545679
     83 C26        -2.2290   -2.3210    1.5150 c         1 MOL      0.152184
     84 O13        -1.9360   -1.3280    0.9260 o         1 MOL     -0.483785
     85 C27        -3.9460   -3.8270    0.4220 c3        1 MOL     -0.394134
     86 C28        -5.3240   -4.4740    0.4300 ca        1 MOL      0.376448
     87 C29        -6.3250   -3.8520   -0.3560 ca        1 MOL     -0.373694
     88 C30        -5.5650   -5.7600    0.8600 ca        1 MOL     -0.373694
     89 C31        -7.5920   -4.3370   -0.5020 ca        1 MOL     -0.098987
     90 C32        -6.8070   -6.3660    0.5970 ca        1 MOL     -0.098987
     91 C33        -7.8200   -5.6470   -0.0760 ca        1 MOL      0.203808
     92 O14        -9.0240   -6.1730   -0.2690 oh        1 MOL     -0.429478
     93 H37        -4.1560   -0.8690    1.2000 hn        1 MOL      0.400721
     94 H38        -3.7400   -3.4000    2.5370 h1        1 MOL     -0.021349
     95 H39        -3.1660   -4.5870    0.3540 hc        1 MOL      0.075250
     96 H40        -3.8700   -3.1820   -0.4530 hc        1 MOL      0.075250
     97 H41        -6.0680   -2.8890   -0.7760 ha        1 MOL      0.156389
     98 H42        -4.7960   -6.2430    1.4370 ha        1 MOL      0.156389
     99 H43        -8.3970   -3.7860   -0.9640 ha        1 MOL      0.111247
    100 H44        -7.0190   -7.3820    0.8890 ha        1 MOL      0.111247
    101 H45        -9.1050   -6.9540    0.2860 ho        1 MOL      0.333880
    102 N10        -1.2460   -3.0700    2.0830 n         1 MOL     -0.357884
    103 C34         0.1740   -3.0620    1.9860 c3        1 MOL      0.182167
    104 C35         0.6670   -4.2540    1.1760 c         1 MOL      0.366975
    105 O15         0.2020   -5.3640    1.3000 o         1 MOL     -0.528979
    106 C36         0.8210   -3.1290    3.3860 c3        1 MOL     -0.017376
    107 C37         0.2950   -2.1940    4.5340 c3        1 MOL      0.058062
    108 C38         2.3180   -2.8230    3.1830 c3        1 MOL     -0.245030
    109 C39         0.0200   -0.8130    4.0070 c3        1 MOL     -0.076390
    110 H46        -1.6450   -3.7940    2.6600 hn        1 MOL      0.248872
    111 H47         0.4960   -2.1310    1.5240 h1        1 MOL     -0.032172
    112 H48         0.8040   -4.1360    3.8010 hc        1 MOL      0.034683
    113 H49         1.0330   -2.0860    5.3350 hc        1 MOL     -0.005610
    114 H50        -0.6090   -2.6040    4.9890 hc        1 MOL     -0.005610
    115 H51         2.5140   -1.8250    2.7960 hc        1 MOL      0.050002
    116 H52         2.8460   -2.8170    4.1430 hc        1 MOL      0.050002
    117 H53         2.7820   -3.5760    2.5520 hc        1 MOL      0.050002
    118 H54        -0.8780   -0.8390    3.3880 hc        1 MOL      0.039508
    119 H55        -0.2810   -0.1950    4.8540 hc        1 MOL      0.039508
    120 H56         0.7670   -0.4220    3.3150 hc        1 MOL      0.039508
    121 N11         1.7410   -3.9190    0.3850 n         1 MOL      0.231012
    122 C40         2.5400   -4.7490   -0.4420 c3        1 MOL     -0.439370
    123 C41         4.0360   -4.5670   -0.1730 c         1 MOL      0.525063
    124 O16         4.4720   -3.6050    0.4430 o         1 MOL     -0.400633
    125 C42         2.3380   -4.4430   -1.9500 c3        1 MOL      0.069093
    126 O17         2.5130   -3.0670   -2.2010 oh        1 MOL     -0.581531
    127 H57         2.0940   -2.9760    0.4490 hn        1 MOL      0.073521
    128 H58         2.2450   -5.7910   -0.3000 h1        1 MOL      0.116986
    129 H59         1.3490   -4.7090   -2.3200 h1        1 MOL      0.062048
    130 H60         3.1560   -4.9580   -2.4740 h1        1 MOL      0.062048
    131 H61         2.0020   -2.5910   -1.5470 ho        1 MOL      0.369956
    132 N12         4.9050   -5.5470   -0.5880 n         1 MOL     -0.355173
    133 C43         6.3060   -5.4670   -0.2950 c3        1 MOL      0.014741
    134 C44         7.0250   -4.1650   -0.8930 c         1 MOL      0.501372
    135 O18         7.9400   -3.6060   -0.2810 o         1 MOL     -0.537786
    136 C45         6.9640   -6.6860   -0.8470 c3        1 MOL     -0.326613
    137 H62         4.5760   -6.3620   -1.0780 hn        1 MOL      0.278245
    138 H63         6.3290   -5.4360    0.7900 h1        1 MOL      0.102736
    139 H64         6.9060   -6.7510   -1.9380 hc        1 MOL      0.102891
    140 H65         8.0480   -6.6930   -0.6790 hc        1 MOL      0.102891
    141 H66         6.4290   -7.5170   -0.3930 hc        1 MOL      0.102891
    142 N13         6.6550   -3.7020   -2.0670 n         1 MOL     -0.296334
    143 C46         7.3780   -2.6340   -2.7990 c3        1 MOL      0.028341
    144 C47         7.1100   -1.2460   -2.0940 c         1 MOL      0.482522
    145 O19         8.0360   -0.3760   -2.2360 o         1 MOL     -0.558180
    146 C48         6.9310   -2.5400   -4.2750 c3        1 MOL     -0.205745
    147 H67         5.8530   -4.1250   -2.5080 hn        1 MOL      0.242852
    148 H68         8.4690   -2.7050   -2.8030 h1        1 MOL      0.098328
    149 H69         6.7710   -3.5380   -4.6810 hc        1 MOL      0.065616
    150 H70         6.0910   -1.8590   -4.4020 hc        1 MOL      0.065616
    151 H71         7.7190   -2.1080   -4.8880 hc        1 MOL      0.065616
    152 N14         6.0110   -1.0150   -1.3960 n         1 MOL     -0.243755
    153 C49         5.7540    0.2800   -0.6290 c3        1 MOL     -0.088490
    154 C50         6.2990    0.2030    0.7570 c         1 MOL      0.539897
    155 O20         6.8080    1.1880    1.2640 o         1 MOL     -0.570918
    156 C51         4.2700    0.5880   -0.7510 c3        1 MOL     -0.018243
    157 C52         3.3310   -0.2330    0.0970 c3        1 MOL      0.130835
    158 C53         1.8670   -0.2230   -0.3610 c         1 MOL      0.848370
    159 O21         1.3010   -1.3060   -0.6880 o         1 MOL     -0.792684
    160 O22         1.2620    0.8610   -0.3010 o         1 MOL     -0.792684
    161 H72         5.3960   -1.8000   -1.2360 hn        1 MOL      0.178477
    162 H73         6.1540    1.1680   -1.1200 h1        1 MOL      0.115569
    163 H74         3.8790    0.4510   -1.7600 hc        1 MOL      0.007323
    164 H75         3.9950    1.6180   -0.5450 hc        1 MOL      0.007323
    165 H76         3.4690    0.0410    1.1410 hc        1 MOL     -0.062033
    166 H77         3.6900   -1.2460   -0.1000 hc        1 MOL     -0.062033
    167 N15         6.3410   -0.9720    1.3530 n         1 MOL     -0.093161
    168 C54         7.1270   -1.3440    2.5000 c3        1 MOL     -0.319360
    169 H78         8.1860   -1.2660    2.2550 h1        1 MOL      0.120248
    170 H79         6.8970   -0.6770    3.3310 h1        1 MOL      0.120248
    171 H80         6.8940   -2.3710    2.7810 h1        1 MOL      0.120248
    172 H81         5.9900   -1.8060    0.9150 hn        1 MOL      0.109637
    173 Ca1        -1.0190   -0.0260   -1.2620 Ca        1 MOL      1.716079
    174 O23        -1.3030   -2.8490   -1.6140 oh        1 MOL     -0.807082
    175 H82        -0.6640   -3.4210   -1.1980 ho        1 MOL      0.400809
    176 H83        -1.9740   -3.4350   -1.9690 ho        1 MOL      0.400809
    177 O24        -0.0370   -0.7430   -3.7120 oh        1 MOL     -0.807082
    178 H84         0.5460   -0.0800   -4.0710 ho        1 MOL      0.400809
    179 H85         0.0910   -1.5040   -4.2720 ho        1 MOL      0.400809
@<TRIPOS>BOND
     1    1    2 1   
     2    1    4 1   
     3    1    5 1   
     4    1    6 1   
     5    2    3 2   
     6    2    7 1   
     7    7    8 1   
     8    7   15 1   
     9    8    9 1   
    10    8   11 1   
    11    8   16 1   
    12    9   10 2   
    13    9   19 1   
    14   11   12 1   
    15   11   17 1   
    16   11   18 1   
    17   12   13 1   
    18   12   14 1   
    19   19   20 1   
    20   19   28 1   
    21   20   21 1   
    22   20   23 1   
    23   20   29 1   
    24   21   22 2   
    25   21   41 1   
    26   23   24 1   
    27   23   30 1   
    28   23   31 1   
    29   24   25 1   
    30   24   32 1   
    31   24   33 1   
    32   25   26 1   
    33   25   34 1   
    34   25   35 1   
    35   26   27 1   
    36   26   36 1   
    37   26   37 1   
    38   27   38 1   
    39   27   39 1   
    40   27   40 1   
    41   41   42 1   
    42   41   49 1   
    43   42   43 1   
    44   42   45 1   
    45   42   50 1   
    46   43   44 2   
    47   43   53 1   
    48   45   46 1   
    49   45   51 1   
    50   45   52 1   
    51   46   47 1   
    52   46   48 1   
    53   53   54 1   
    54   53   57 1   
    55   54   55 1   
    56   54   58 1   
    57   54   59 1   
    58   55   56 2   
    59   55   60 1   
    60   60   61 1   
    61   60   68 1   
    62   61   62 1   
    63   61   64 1   
    64   61   69 1   
    65   62   63 2   
    66   62   74 1   
    67   64   65 1   
    68   64   70 1   
    69   64   71 1   
    70   65   66 1   
    71   65   67 2   
    72   66   72 1   
    73   66   73 1   
    74   74   75 1   
    75   74   78 1   
    76   75   76 1   
    77   75   79 1   
    78   75   80 1   
    79   76   77 2   
    80   76   81 1   
    81   81   82 1   
    82   81   93 1   
    83   82   83 1   
    84   82   85 1   
    85   82   94 1   
    86   83   84 2   
    87   83  102 1   
    88   85   86 1   
    89   85   95 1   
    90   85   96 1   
    91   86   87 ar  
    92   86   88 ar  
    93   87   89 ar  
    94   87   97 1   
    95   88   90 ar  
    96   88   98 1   
    97   89   91 ar  
    98   89   99 1   
    99   90   91 ar  
   100   90  100 1   
   101   91   92 1   
   102   92  101 1   
   103  102  103 1   
   104  102  110 1   
   105  103  104 1   
   106  103  106 1   
   107  103  111 1   
   108  104  105 2   
   109  104  121 1   
   110  106  107 1   
   111  106  108 1   
   112  106  112 1   
   113  107  109 1   
   114  107  113 1   
   115  107  114 1   
   116  108  115 1   
   117  108  116 1   
   118  108  117 1   
   119  109  118 1   
   120  109  119 1   
   121  109  120 1   
   122  121  122 1   
   123  121  127 1   
   124  122  123 1   
   125  122  125 1   
   126  122  128 1   
   127  123  124 2   
   128  123  132 1   
   129  125  126 1   
   130  125  129 1   
   131  125  130 1   
   132  126  131 1   
   133  132  133 1   
   134  132  137 1   
   135  133  134 1   
   136  133  136 1   
   137  133  138 1   
   138  134  135 2   
   139  134  142 1   
   140  136  139 1   
   141  136  140 1   
   142  136  141 1   
   143  142  143 1   
   144  142  147 1   
   145  143  144 1   
   146  143  146 1   
   147  143  148 1   
   148  144  145 2   
   149  144  152 1   
   150  146  149 1   
   151  146  150 1   
   152  146  151 1   
   153  152  153 1   
   154  152  161 1   
   155  153  154 1   
   156  153  156 1   
   157  153  162 1   
   158  154  155 2   
   159  154  167 1   
   160  156  157 1   
   161  156  163 1   
   162  156  164 1   
   163  157  158 1   
   164  157  165 1   
   165  157  166 1   
   166  158  159 1   
   167  158  160 1   
   168  167  168 1   
   169  167  172 1   
   170  168  169 1   
   171  168  170 1   
   172  168  171 1   
   173  174  175 1   
   174  174  176 1   
   175  177  178 1   
   176  177  179 1   
@<TRIPOS>SUBSTRUCTURE
     1 MOL         1 TEMP              0 ****  ****    0 ROOT
