@<TRIPOS>MOLECULE
MOL
  175   173     1     0     0
SMALL
resp


@<TRIPOS>ATOM
      1 C1          0.5790    3.9490    5.4910 c3        1 MOL     -0.382202
      2 C2          0.1270    4.2330    4.0650 c         1 MOL      0.707258
      3 O1          0.9020    4.3700    3.1400 o         1 MOL     -0.525188
      4 H1          0.2440    4.7540    6.1450 hc        1 MOL      0.093502
      5 H2          0.1490    3.0060    5.8280 hc        1 MOL      0.093502
      6 H3          1.6660    3.8850    5.5220 hc        1 MOL      0.093502
      7 N1         -1.1910    4.2840    3.7990 n         1 MOL     -0.606915
      8 C3         -1.8300    3.8780    2.5700 c3        1 MOL      0.077587
      9 C4         -1.7910    4.9660    1.4390 c         1 MOL      0.623886
     10 O2         -1.7520    6.1390    1.7890 o         1 MOL     -0.567455
     11 C5         -3.3110    3.6000    2.8850 c3        1 MOL     -0.068770
     12 C6         -3.9660    2.8710    1.6550 c         1 MOL      0.530074
     13 O3         -5.1850    3.0140    1.4400 o         1 MOL     -0.639841
     14 O4         -3.2720    2.0920    0.9800 o         1 MOL     -0.639841
     15 H4         -1.8090    4.3950    4.5950 hn        1 MOL      0.295451
     16 H5         -1.3680    2.9400    2.2430 h1        1 MOL      0.096823
     17 H6         -3.8460    4.4090    3.3660 hc        1 MOL      0.010444
     18 H7         -3.2490    2.8180    3.6450 hc        1 MOL      0.010444
     19 N2         -1.9590    4.5180    0.1650 n         1 MOL     -0.661082
     20 C7         -2.3450    5.3820   -0.9480 c3        1 MOL      0.522015
     21 C8         -3.7170    5.0410   -1.6400 c         1 MOL      0.447080
     22 O5         -4.3490    5.8480   -2.2630 o         1 MOL     -0.571929
     23 C9         -1.1660    5.4890   -1.9630 c3        1 MOL     -0.455826
     24 H8         -1.8220    3.5240    0.0780 hn        1 MOL      0.372034
     25 H9         -2.6580    6.3660   -0.6090 h1        1 MOL     -0.057440
     26 H10        -1.3260    6.3620   -2.5940 hc        1 MOL      0.111898
     27 H11        -0.2600    5.5770   -1.3620 hc        1 MOL      0.111898
     28 H12        -1.1920    4.5750   -2.5520 hc        1 MOL      0.111898
     29 N3         -4.0910    3.7370   -1.7120 n         1 MOL     -0.337244
     30 C10        -4.8570    3.2420   -2.8250 c3        1 MOL      0.089512
     31 C11        -5.9260    2.1510   -2.4470 c         1 MOL      0.331400
     32 O6         -6.3650    1.4490   -3.3940 o         1 MOL     -0.515486
     33 C12        -3.8290    2.6350   -3.8420 c3        1 MOL     -0.010867
     34 C13        -3.0020    1.4060   -3.3500 c         1 MOL      0.604298
     35 O7         -3.2650    0.8990   -2.2220 o         1 MOL     -0.643340
     36 O8         -2.1100    0.9240   -4.1090 o         1 MOL     -0.643340
     37 H13        -3.5260    3.1000   -1.1840 hn        1 MOL      0.196310
     38 H14        -5.4910    3.9350   -3.3730 h1        1 MOL      0.080117
     39 H15        -3.0480    3.3600   -4.0770 hc        1 MOL     -0.013517
     40 H16        -4.3400    2.4090   -4.7690 hc        1 MOL     -0.013517
     41 N4         -6.2220    1.9820   -1.1200 n         1 MOL     -0.193325
     42 C14        -7.3990    1.3020   -0.5750 c3        1 MOL     -0.030589
     43 C15        -7.5790   -0.1510   -1.0380 c         1 MOL      0.434451
     44 O9         -8.7220   -0.6210   -1.0120 o         1 MOL     -0.576423
     45 H17        -5.8230    2.6700   -0.5030 hn        1 MOL      0.172096
     46 H18        -8.3080    1.8070   -0.9090 h1        1 MOL      0.061788
     47 H19        -7.4660    1.2980    0.5110 h1        1 MOL      0.061788
     48 N5         -6.5080   -0.8390   -1.5290 n         1 MOL     -0.238614
     49 C16        -6.4040   -2.2300   -2.0430 c3        1 MOL     -0.001689
     50 C17        -6.2900   -3.2980   -0.9170 c         1 MOL      0.402380
     51 O10        -6.3330   -4.4870   -1.2110 o         1 MOL     -0.517314
     52 C18        -5.2850   -2.3210   -3.0900 c3        1 MOL     -0.076768
     53 C19        -3.8240   -2.5300   -2.5970 c         1 MOL      0.520345
     54 N6         -2.7760   -2.6330   -3.3590 n         1 MOL     -0.582039
     55 O11        -3.4820   -2.3320   -1.4070 o         1 MOL     -0.517376
     56 H20        -5.6400   -0.3260   -1.5890 hn        1 MOL      0.209942
     57 H21        -7.3500   -2.4930   -2.5200 h1        1 MOL      0.105724
     58 H22        -5.2690   -1.4240   -3.7230 hc        1 MOL      0.045701
     59 H23        -5.5730   -3.1660   -3.7040 hc        1 MOL      0.045701
     60 H24        -2.8690   -2.7990   -4.3580 hn        1 MOL      0.318766
     61 H25        -1.8760   -2.3730   -2.9980 hn        1 MOL      0.318766
     62 N7         -6.1250   -2.8680    0.3480 n         1 MOL     -0.126813
     63 C20        -6.2410   -3.6660    1.5600 c3        1 MOL     -0.369886
     64 C21        -4.9160   -4.3400    1.9960 c         1 MOL      0.597357
     65 O12        -4.8430   -5.1960    2.8350 o         1 MOL     -0.567605
     66 H26        -6.0830   -1.8610    0.4360 hn        1 MOL      0.170176
     67 H27        -6.9050   -4.4780    1.2520 h1        1 MOL      0.147731
     68 H28        -6.6630   -3.0630    2.3580 h1        1 MOL      0.147731
     69 N8         -3.7780   -4.0650    1.3020 n         1 MOL     -0.188239
     70 C22        -2.4450   -4.5890    1.6560 c3        1 MOL     -0.347157
     71 C23        -1.3970   -3.5010    1.6430 c         1 MOL      0.648554
     72 O13        -1.4430   -2.6010    0.8410 o         1 MOL     -0.445662
     73 C24        -1.9010   -5.5550    0.6100 c3        1 MOL      0.498109
     74 C25        -2.6030   -6.9170    0.5250 c3        1 MOL     -0.682930
     75 O14        -2.0880   -4.9600   -0.6730 oh        1 MOL     -0.574697
     76 H29        -3.8120   -3.3250    0.6170 hn        1 MOL      0.171696
     77 H30        -2.5160   -5.1220    2.6040 h1        1 MOL      0.146756
     78 H31        -0.8200   -5.6730    0.6840 h1        1 MOL      0.013919
     79 H32        -2.0790   -4.0040   -0.7240 ho        1 MOL      0.292760
     80 H33        -2.6020   -7.3060    1.5440 hc        1 MOL      0.181326
     81 H34        -3.5840   -6.8630    0.0580 hc        1 MOL      0.181326
     82 H35        -1.9900   -7.4560   -0.1970 hc        1 MOL      0.181326
     83 N9         -0.3760   -3.6130    2.4990 n         1 MOL     -0.678361
     84 C26         0.8330   -2.7920    2.4880 c3        1 MOL      0.029671
     85 C27         1.6410   -3.0590    1.1990 c         1 MOL      0.501307
     86 O15         2.0560   -4.1880    0.9130 o         1 MOL     -0.585135
     87 C28         1.6870   -2.8490    3.7820 c3        1 MOL      0.186646
     88 C29         0.8340   -2.7130    5.0570 c3        1 MOL      0.153269
     89 C30         2.7920   -1.7310    3.6160 c3        1 MOL     -0.134921
     90 C31         1.5500   -2.4130    6.3620 c3        1 MOL     -0.155006
     91 H36        -0.2560   -4.4740    3.0050 hn        1 MOL      0.311467
     92 H37         0.4600   -1.7680    2.4630 h1        1 MOL      0.088063
     93 H38         2.1730   -3.8190    3.8170 hc        1 MOL     -0.041807
     94 H39         0.2310   -3.6070    5.2020 hc        1 MOL     -0.036300
     95 H40         0.0930   -1.9130    4.9820 hc        1 MOL     -0.036300
     96 H41         3.3980   -1.9790    2.7350 hc        1 MOL      0.002860
     97 H42         2.3500   -0.7710    3.3740 hc        1 MOL      0.002860
     98 H43         3.4130   -1.7460    4.5110 hc        1 MOL      0.002860
     99 H44         0.8110   -2.6240    7.1250 hc        1 MOL      0.027458
    100 H45         2.3620   -3.1310    6.4980 hc        1 MOL      0.027458
    101 H46         1.8460   -1.3710    6.5160 hc        1 MOL      0.027458
    102 N10         1.8200   -2.0500    0.3660 n         1 MOL     -0.190309
    103 C32         2.7070   -2.0220   -0.8200 c3        1 MOL      0.054858
    104 C33         4.1450   -1.6210   -0.5080 c         1 MOL      0.474232
    105 O16         4.4570   -0.8330    0.3520 o         1 MOL     -0.368061
    106 C34         2.0650   -1.2970   -1.9920 c3        1 MOL     -0.331563
    107 C35         0.5710   -1.5480   -2.2890 c         1 MOL      0.704811
    108 O17        -0.2860   -0.9690   -1.6060 o         1 MOL     -0.667299
    109 O18         0.1920   -2.2010   -3.2900 o         1 MOL     -0.667299
    110 H47         1.3210   -1.1990    0.5610 hn        1 MOL      0.228031
    111 H48         2.8730   -3.0620   -1.1260 h1        1 MOL      0.051979
    112 H49         2.5930   -1.4570   -2.9330 hc        1 MOL      0.099141
    113 H50         2.0270   -0.2300   -1.7880 hc        1 MOL      0.099141
    114 N11         5.0780   -2.0760   -1.3630 n         1 MOL     -0.694147
    115 C36         6.4810   -1.6080   -1.2480 c3        1 MOL      0.461053
    116 C37         6.7060   -0.0620   -1.1100 c         1 MOL      0.288880
    117 O19         7.3670    0.4110   -0.1460 o         1 MOL     -0.466248
    118 C38         7.3330   -2.0830   -2.4270 c3        1 MOL     -0.254177
    119 C39         8.8870   -1.8270   -2.3490 ca        1 MOL      0.124153
    120 C40         9.5720   -1.7910   -1.0910 ca        1 MOL     -0.198388
    121 C41         9.6690   -1.7770   -3.5180 ca        1 MOL     -0.198388
    122 C42        10.9680   -1.6550   -0.9860 ca        1 MOL     -0.061955
    123 C43        11.0800   -1.7750   -3.3970 ca        1 MOL     -0.061955
    124 C44        11.6660   -1.6170   -2.1680 ca        1 MOL     -0.130152
    125 H51         4.7620   -2.7630   -2.0360 hn        1 MOL      0.362559
    126 H52         6.9590   -1.9820   -0.3450 h1        1 MOL      0.014557
    127 H53         6.8240   -1.6840   -3.2990 hc        1 MOL      0.066416
    128 H54         7.1540   -3.1580   -2.5080 hc        1 MOL      0.066416
    129 H55         9.0880   -1.7960   -0.1280 ha        1 MOL      0.119990
    130 H56         9.1380   -1.8960   -4.4490 ha        1 MOL      0.119990
    131 H57        11.4800   -1.6850   -0.0420 ha        1 MOL      0.098561
    132 H58        11.6380   -1.9790   -4.3030 ha        1 MOL      0.098561
    133 H59        12.7400   -1.6630   -2.1010 ha        1 MOL      0.082542
    134 N12         6.0530    0.8520   -1.8760 n         1 MOL     -0.112291
    135 C45         6.1890    2.3280   -1.6560 c3        1 MOL      0.015743
    136 C46         5.5960    2.7910   -0.3160 c         1 MOL      0.242292
    137 O20         6.1410    3.6360    0.3660 o         1 MOL     -0.475906
    138 C47         5.4680    2.9930   -2.8590 c3        1 MOL      0.012017
    139 C48         5.0690    1.9060   -3.7700 c3        1 MOL      0.044185
    140 C49         4.9580    0.7170   -2.7980 c3        1 MOL     -0.230858
    141 H60         7.2520    2.5590   -1.7150 h1        1 MOL      0.087244
    142 H61         4.5770    3.5510   -2.5640 hc        1 MOL      0.015164
    143 H62         6.1980    3.6770   -3.2930 hc        1 MOL      0.015164
    144 H63         4.2270    2.1940   -4.4040 hc        1 MOL      0.015043
    145 H64         5.8870    1.7970   -4.4790 hc        1 MOL      0.015043
    146 H65         3.9710    0.7680   -2.3260 h1        1 MOL      0.099141
    147 H66         4.9610   -0.2200   -3.3530 h1        1 MOL      0.099141
    148 N13         4.6000    2.0670    0.1850 n         1 MOL      0.054190
    149 C50         3.9360    2.3850    1.4780 c3        1 MOL     -0.279962
    150 C51         4.8410    2.0250    2.6590 c         1 MOL      0.415853
    151 O21         5.0410    2.8560    3.5910 o         1 MOL     -0.544511
    152 C52         2.5690    1.6900    1.6830 c3        1 MOL     -0.266512
    153 C53         1.6510    2.1290    0.5290 c3        1 MOL     -0.180419
    154 C54         0.2650    1.4520    0.4250 c         1 MOL      0.733300
    155 O22         0.0290    0.4400    1.1200 o         1 MOL     -0.772239
    156 O23        -0.5740    1.9480   -0.2690 o         1 MOL     -0.772239
    157 H67         4.3140    1.2320   -0.3110 hn        1 MOL      0.122809
    158 H68         3.7230    3.4540    1.5090 h1        1 MOL      0.187834
    159 H69         2.2120    2.0630    2.6310 hc        1 MOL      0.137972
    160 H70         2.7230    0.6130    1.6670 hc        1 MOL      0.137972
    161 H71         2.0980    1.8050   -0.4130 hc        1 MOL      0.088312
    162 H72         1.5400    3.2210    0.5440 hc        1 MOL      0.088312
    163 N14         5.5610    0.8850    2.5620 n         1 MOL      0.016915
    164 C55         6.6040    0.4400    3.4690 c3        1 MOL     -0.152573
    165 H73         6.6850    1.1410    4.2990 h1        1 MOL      0.059785
    166 H74         6.3540   -0.5490    3.8540 h1        1 MOL      0.059785
    167 H75         7.5540    0.3950    2.9380 h1        1 MOL      0.059785
    168 H76         5.2970    0.2880    1.7990 hn        1 MOL      0.057956
    169 Ca1        -2.2620   -0.1240   -0.1680 Ca        1 MOL      1.660721
    170 O24        -2.2130   -0.2250    2.5010 oh        1 MOL     -0.883608
    171 H77        -2.6830    0.5420    2.8350 ho        1 MOL      0.424336
    172 H78        -1.4110   -0.2560    3.0120 ho        1 MOL      0.424336
    173 O25        -4.7800   -0.2680    0.9350 oh        1 MOL     -0.883608
    174 H79        -5.3920   -0.6130    1.5780 ho        1 MOL      0.424336
    175 H80        -4.8950    0.6800    0.9710 ho        1 MOL      0.424336
@<TRIPOS>BOND
     1    1    2 1   
     2    1    4 1   
     3    1    5 1   
     4    1    6 1   
     5    2    3 2   
     6    2    7 1   
     7    7    8 1   
     8    7   15 1   
     9    8    9 1   
    10    8   11 1   
    11    8   16 1   
    12    9   10 2   
    13    9   19 1   
    14   11   12 1   
    15   11   17 1   
    16   11   18 1   
    17   12   13 1   
    18   12   14 1   
    19   19   20 1   
    20   19   24 1   
    21   20   21 1   
    22   20   23 1   
    23   20   25 1   
    24   21   22 2   
    25   21   29 1   
    26   23   26 1   
    27   23   27 1   
    28   23   28 1   
    29   29   30 1   
    30   29   37 1   
    31   30   31 1   
    32   30   33 1   
    33   30   38 1   
    34   31   32 2   
    35   31   41 1   
    36   33   34 1   
    37   33   39 1   
    38   33   40 1   
    39   34   35 1   
    40   34   36 1   
    41   41   42 1   
    42   41   45 1   
    43   42   43 1   
    44   42   46 1   
    45   42   47 1   
    46   43   44 2   
    47   43   48 1   
    48   48   49 1   
    49   48   56 1   
    50   49   50 1   
    51   49   52 1   
    52   49   57 1   
    53   50   51 2   
    54   50   62 1   
    55   52   53 1   
    56   52   58 1   
    57   52   59 1   
    58   53   54 1   
    59   53   55 2   
    60   54   60 1   
    61   54   61 1   
    62   62   63 1   
    63   62   66 1   
    64   63   64 1   
    65   63   67 1   
    66   63   68 1   
    67   64   65 2   
    68   64   69 1   
    69   69   70 1   
    70   69   76 1   
    71   70   71 1   
    72   70   73 1   
    73   70   77 1   
    74   71   72 2   
    75   71   83 1   
    76   73   74 1   
    77   73   75 1   
    78   73   78 1   
    79   74   80 1   
    80   74   81 1   
    81   74   82 1   
    82   75   79 1   
    83   83   84 1   
    84   83   91 1   
    85   84   85 1   
    86   84   87 1   
    87   84   92 1   
    88   85   86 2   
    89   85  102 1   
    90   87   88 1   
    91   87   89 1   
    92   87   93 1   
    93   88   90 1   
    94   88   94 1   
    95   88   95 1   
    96   89   96 1   
    97   89   97 1   
    98   89   98 1   
    99   90   99 1   
   100   90  100 1   
   101   90  101 1   
   102  102  103 1   
   103  102  110 1   
   104  103  104 1   
   105  103  106 1   
   106  103  111 1   
   107  104  105 2   
   108  104  114 1   
   109  106  107 1   
   110  106  112 1   
   111  106  113 1   
   112  107  108 1   
   113  107  109 1   
   114  114  115 1   
   115  114  125 1   
   116  115  116 1   
   117  115  118 1   
   118  115  126 1   
   119  116  117 2   
   120  116  134 1   
   121  118  119 1   
   122  118  127 1   
   123  118  128 1   
   124  119  120 ar  
   125  119  121 ar  
   126  120  122 ar  
   127  120  129 1   
   128  121  123 ar  
   129  121  130 1   
   130  122  124 ar  
   131  122  131 1   
   132  123  124 ar  
   133  123  132 1   
   134  124  133 1   
   135  134  135 1   
   136  134  140 1   
   137  135  136 1   
   138  135  138 1   
   139  135  141 1   
   140  136  137 2   
   141  136  148 1   
   142  138  139 1   
   143  138  142 1   
   144  138  143 1   
   145  139  140 1   
   146  139  144 1   
   147  139  145 1   
   148  140  146 1   
   149  140  147 1   
   150  148  149 1   
   151  148  157 1   
   152  149  150 1   
   153  149  152 1   
   154  149  158 1   
   155  150  151 2   
   156  150  163 1   
   157  152  153 1   
   158  152  159 1   
   159  152  160 1   
   160  153  154 1   
   161  153  161 1   
   162  153  162 1   
   163  154  155 1   
   164  154  156 1   
   165  163  164 1   
   166  163  168 1   
   167  164  165 1   
   168  164  166 1   
   169  164  167 1   
   170  170  171 1   
   171  170  172 1   
   172  173  174 1   
   173  173  175 1   
@<TRIPOS>SUBSTRUCTURE
     1 MOL         1 TEMP              0 ****  ****    0 ROOT
