@<TRIPOS>MOLECULE
MOL
  189   185     1     0     0
SMALL
resp


@<TRIPOS>ATOM
      1 C1          0.6050   -3.9480    6.2340 c3        1 MOL     -0.324311
      2 C2          0.9370   -3.3950    4.8490 c         1 MOL      0.687443
      3 O1          0.9490   -2.1690    4.6700 o         1 MOL     -0.595390
      4 H1         -0.4110   -4.3440    6.2340 hc        1 MOL      0.082248
      5 H2          1.3050   -4.7450    6.4850 hc        1 MOL      0.082248
      6 H3          0.6840   -3.1510    6.9730 hc        1 MOL      0.082248
      7 N1          1.0280   -4.2920    3.8580 n         1 MOL     -0.539111
      8 C3          1.5190   -3.9450    2.5440 c3        1 MOL      0.118432
      9 C4          1.0440   -4.9860    1.4790 c         1 MOL      0.498714
     10 O2          0.8410   -6.1860    1.7200 o         1 MOL     -0.587904
     11 C5          3.0420   -3.8800    2.4480 c3        1 MOL     -0.151995
     12 C6          3.5970   -3.7110    1.0440 c         1 MOL      0.698712
     13 O3          4.3200   -4.6110    0.6580 o         1 MOL     -0.636051
     14 O4          3.2890   -2.7190    0.3290 o         1 MOL     -0.636051
     15 H4          0.9140   -5.2860    3.9930 hn        1 MOL      0.302747
     16 H5          1.1500   -2.9580    2.2610 h1        1 MOL      0.097658
     17 H6          3.4940   -4.7870    2.8590 hc        1 MOL      0.007391
     18 H7          3.4170   -3.0330    3.0240 hc        1 MOL      0.007391
     19 N2          0.8180   -4.5070    0.2150 n         1 MOL     -0.099846
     20 C7          0.4990   -5.3550   -0.9860 c3        1 MOL     -0.145984
     21 C8          1.4730   -5.0820   -2.1200 c         1 MOL      0.660089
     22 O5          1.5360   -5.9410   -3.0400 o         1 MOL     -0.622698
     23 C9         -1.0140   -5.0830   -1.3160 c3        1 MOL      0.295796
     24 C10        -1.9960   -5.4790   -0.2570 c3        1 MOL      0.023469
     25 C11        -1.4550   -5.4690   -2.7630 c3        1 MOL     -0.189469
     26 C12        -3.5010   -5.1310   -0.5260 c3        1 MOL     -0.215739
     27 H8          0.9040   -3.5070    0.1040 hn        1 MOL      0.005326
     28 H9          0.7010   -6.3780   -0.6790 h1        1 MOL      0.074878
     29 H10        -1.0040   -3.9900   -1.3950 hc        1 MOL     -0.024967
     30 H11        -1.6400   -5.1640    0.7340 hc        1 MOL     -0.018635
     31 H12        -1.9150   -6.5650   -0.1750 hc        1 MOL     -0.018635
     32 H13        -2.5390   -5.3180   -2.8260 hc        1 MOL      0.020571
     33 H14        -0.9050   -4.8700   -3.4970 hc        1 MOL      0.020571
     34 H15        -1.2990   -6.5360   -2.8620 hc        1 MOL      0.020571
     35 H16        -3.6790   -4.1440   -0.9570 hc        1 MOL      0.052099
     36 H17        -3.8470   -5.9460   -1.1530 hc        1 MOL      0.052099
     37 H18        -4.0690   -5.1510    0.4080 hc        1 MOL      0.052099
     38 N3          2.4070   -4.1010   -2.0620 n         1 MOL     -0.350688
     39 C13         3.1880   -3.6680   -3.2860 c3        1 MOL      0.057886
     40 C14         4.7170   -3.4210   -3.0800 c         1 MOL      0.332154
     41 O6          5.4660   -3.0600   -4.0320 o         1 MOL     -0.543275
     42 C15         2.4790   -2.4810   -4.0270 c3        1 MOL     -0.115741
     43 C16         2.3490   -1.2340   -3.1790 c         1 MOL      0.786985
     44 O7          3.1140   -1.0000   -2.2310 o         1 MOL     -0.715755
     45 O8          1.4620   -0.4090   -3.5220 o         1 MOL     -0.715755
     46 H19         2.5960   -3.6030   -1.2100 hn        1 MOL      0.106183
     47 H20         3.0990   -4.5060   -3.9860 h1        1 MOL      0.073786
     48 H21         1.4860   -2.8780   -4.2570 hc        1 MOL      0.034659
     49 H22         2.9720   -2.3250   -4.9870 hc        1 MOL      0.034659
     50 N4          5.2280   -3.6110   -1.8750 n         1 MOL     -0.126681
     51 C17         6.6550   -3.3460   -1.5720 c3        1 MOL     -0.221669
     52 C18         7.1770   -1.8740   -1.6190 c         1 MOL      0.553094
     53 O9          8.3850   -1.6470   -1.3540 o         1 MOL     -0.638628
     54 H23         4.6790   -4.0740   -1.1710 hn        1 MOL      0.187392
     55 H24         7.2860   -3.8030   -2.3400 h1        1 MOL      0.100206
     56 H25         6.9230   -3.7030   -0.5880 h1        1 MOL      0.100206
     57 N5          6.3500   -0.8760   -1.9140 n         1 MOL     -0.122975
     58 C19         6.7330    0.5020   -2.3140 c3        1 MOL      0.015887
     59 C20         7.1060    1.5440   -1.1890 c         1 MOL      0.367993
     60 O10         7.6890    2.6140   -1.4490 o         1 MOL     -0.540551
     61 C21         5.5530    1.1570   -3.1040 c3        1 MOL     -0.356650
     62 C22         4.3340    1.5900   -2.2980 c         1 MOL      0.828130
     63 O11         4.2550    1.4380   -1.0230 o         1 MOL     -0.690852
     64 O12         3.3630    2.0850   -2.9610 o         1 MOL     -0.690852
     65 H26         5.3730   -1.1370   -2.0420 hn        1 MOL      0.086525
     66 H27         7.5300    0.4380   -3.0420 h1        1 MOL      0.091761
     67 H28         5.1470    0.4910   -3.8730 hc        1 MOL      0.104530
     68 H29         5.8940    2.0960   -3.5280 hc        1 MOL      0.104530
     69 N6          6.8210    1.2770    0.0770 n         1 MOL     -0.189998
     70 C23         7.2540    2.0880    1.2730 c3        1 MOL     -0.289910
     71 C24         6.2290    3.2600    1.6250 c         1 MOL      0.455314
     72 O13         6.5260    4.1430    2.4250 o         1 MOL     -0.588421
     73 H30         6.4150    0.3750    0.2820 hn        1 MOL      0.228941
     74 H31         8.1160    2.6290    0.8810 h1        1 MOL      0.138552
     75 H32         7.5370    1.5400    2.1670 h1        1 MOL      0.138552
     76 N7          5.0340    3.2770    1.0270 n         1 MOL     -0.051315
     77 C25         3.8600    4.1250    1.3260 c3        1 MOL     -0.194437
     78 C26         2.6330    3.2890    1.5880 c         1 MOL      0.417069
     79 O14         2.6900    2.0930    1.4120 o         1 MOL     -0.491471
     80 C27         3.7000    5.0230    0.0850 c3        1 MOL      0.231427
     81 C28         4.8890    5.9250   -0.0960 c3        1 MOL     -0.344666
     82 C29         4.4250    7.0000   -1.0410 c         1 MOL      0.662354
     83 N8          4.9160    7.0530   -2.2840 n         1 MOL     -0.814111
     84 O15         3.6260    7.8420   -0.7150 o         1 MOL     -0.584903
     85 H33         4.8930    2.5070    0.3880 hn        1 MOL      0.110094
     86 H34         4.1580    4.7440    2.1830 h1        1 MOL      0.086038
     87 H35         2.8420    5.6830    0.2210 hc        1 MOL     -0.007960
     88 H36         3.5920    4.4470   -0.8220 hc        1 MOL     -0.007960
     89 H37         5.6790    5.3890   -0.6160 hc        1 MOL      0.103688
     90 H38         5.2910    6.3090    0.8450 hc        1 MOL      0.103688
     91 H39         5.6480    6.4040   -2.5110 hn        1 MOL      0.371108
     92 H40         4.4100    7.6890   -2.8840 hn        1 MOL      0.371108
     93 N9          1.5620    3.9880    2.0130 n         1 MOL     -0.332919
     94 C30         0.2900    3.3640    2.4070 c3        1 MOL     -0.042285
     95 C31        -0.7740    3.6170    1.3020 c         1 MOL      0.375568
     96 O16        -1.2300    4.7350    1.0990 o         1 MOL     -0.553476
     97 C32        -0.2200    3.9010    3.7990 c3        1 MOL      0.183389
     98 C33        -1.6380    3.3890    4.0200 c3        1 MOL     -0.242332
     99 C34         0.6090    3.4120    4.9980 c3        1 MOL     -0.242332
    100 H41         1.7320    4.9540    2.2710 hn        1 MOL      0.279519
    101 H42         0.4700    2.2850    2.4600 h1        1 MOL      0.112200
    102 H43        -0.1190    4.9750    3.8090 hc        1 MOL      0.010648
    103 H44        -2.0300    3.6580    4.9960 hc        1 MOL      0.049585
    104 H45        -2.2450    3.9540    3.3030 hc        1 MOL      0.049585
    105 H46        -1.7820    2.3150    3.9250 hc        1 MOL      0.049585
    106 H47         0.9780    2.3910    4.8550 hc        1 MOL      0.049585
    107 H48         1.4240    4.1210    5.1550 hc        1 MOL      0.049585
    108 H49         0.0950    3.3310    5.9620 hc        1 MOL      0.049585
    109 N10        -1.2240    2.5740    0.6430 n         1 MOL     -0.232861
    110 C35        -2.3220    2.6380   -0.3270 c3        1 MOL      0.149765
    111 C36        -3.7030    2.4850    0.3610 c         1 MOL      0.253907
    112 O17        -3.6610    2.0000    1.4960 o         1 MOL     -0.351328
    113 C37        -2.0200    1.6340   -1.4640 c3        1 MOL     -0.258640
    114 C38        -3.0750    1.5900   -2.5000 c         1 MOL      0.671676
    115 N11        -2.8330    2.3840   -3.4910 n         1 MOL     -0.779296
    116 O18        -4.0740    0.8450   -2.5070 o         1 MOL     -0.562301
    117 H50        -0.8990    1.6890    1.0130 hn        1 MOL      0.290292
    118 H51        -2.4480    3.6220   -0.7760 h1        1 MOL      0.021112
    119 H52        -1.8320    0.6450   -1.0260 hc        1 MOL      0.125546
    120 H53        -1.1080    2.0080   -1.9250 hc        1 MOL      0.125546
    121 H54        -1.9970    2.9120   -3.6820 hn        1 MOL      0.368565
    122 H55        -3.5540    2.4360   -4.1990 hn        1 MOL      0.368565
    123 N12        -4.8110    2.6720   -0.3070 n         1 MOL     -0.113927
    124 C39        -6.1830    2.6330    0.3130 c3        1 MOL      0.092699
    125 C40        -6.7250    1.1920    0.6260 c         1 MOL      0.481819
    126 O19        -7.4930    1.0370    1.5740 o         1 MOL     -0.602235
    127 C41        -7.1360    3.4220   -0.5460 c3        1 MOL     -0.181241
    128 C42        -7.0950    2.9930   -2.0320 ca        1 MOL      0.178017
    129 C43        -6.2780    3.7630   -3.0000 ca        1 MOL     -0.250592
    130 C44        -7.9080    1.9970   -2.5000 ca        1 MOL     -0.250592
    131 C45        -6.2950    3.3890   -4.3410 ca        1 MOL     -0.185926
    132 C46        -7.8080    1.5630   -3.8420 ca        1 MOL     -0.185926
    133 C47        -7.1270    2.2770   -4.8200 ca        1 MOL      0.312854
    134 O20        -7.1240    1.8900   -6.1310 oh        1 MOL     -0.558343
    135 H56        -4.7760    2.8220   -1.3070 hn        1 MOL      0.067139
    136 H57        -6.1380    3.1180    1.2950 h1        1 MOL      0.067040
    137 H58        -6.6160    4.3690   -0.4190 hc        1 MOL      0.046796
    138 H59        -8.1490    3.4850   -0.1480 hc        1 MOL      0.046796
    139 H60        -5.6240    4.5750   -2.7260 ha        1 MOL      0.156546
    140 H61        -8.4870    1.3340   -1.8650 ha        1 MOL      0.156546
    141 H62        -5.7270    3.9500   -5.0620 ha        1 MOL      0.099569
    142 H63        -8.3080    0.6660   -4.1640 ha        1 MOL      0.099569
    143 H64        -7.7520    1.1860   -6.3120 ho        1 MOL      0.416276
    144 N13        -6.1440    0.1160    0.0640 n         1 MOL      0.018345
    145 C48        -6.4350   -1.2430    0.5260 c3        1 MOL     -0.343071
    146 C49        -5.4210   -1.6440    1.5680 c         1 MOL      0.385815
    147 O21        -5.4220   -2.7980    1.9500 o         1 MOL     -0.540052
    148 C50        -6.3020   -2.1660   -0.6640 c3        1 MOL      0.312577
    149 C51        -7.2760   -1.7480   -1.8070 c3        1 MOL     -0.322436
    150 C52        -8.7860   -1.7940   -1.4890 c         1 MOL      0.736818
    151 O22        -9.2090   -2.4350   -0.5480 o         1 MOL     -0.722569
    152 O23        -9.5880   -1.1020   -2.1980 o         1 MOL     -0.722569
    153 H65        -5.3250    0.2850   -0.5050 hn        1 MOL      0.118639
    154 H66        -7.4040   -1.2860    1.0330 h1        1 MOL      0.224265
    155 H67        -6.5180   -3.1740   -0.3240 hc        1 MOL     -0.029313
    156 H68        -5.2860   -2.1210   -1.0670 hc        1 MOL     -0.029313
    157 H69        -7.0580   -2.5310   -2.5290 hc        1 MOL      0.036443
    158 H70        -6.9640   -0.8330   -2.2940 hc        1 MOL      0.036443
    159 N14        -4.4380   -0.8830    1.9340 n         1 MOL     -0.075445
    160 C53        -3.4560   -1.1650    3.0060 c3        1 MOL     -0.074211
    161 C54        -3.8700   -0.4680    4.2460 c         1 MOL      0.457728
    162 O24        -3.7650   -1.0060    5.3560 o         1 MOL     -0.549385
    163 C55        -2.0410   -0.7940    2.6310 c3        1 MOL      0.075206
    164 C56        -1.5990   -1.3960    1.2700 c3        1 MOL     -0.136319
    165 C57        -0.2280   -1.0550    0.8250 c         1 MOL      0.504061
    166 O25         0.3700   -1.6950   -0.0970 o         1 MOL     -0.612066
    167 O26         0.3040   -0.0270    1.3070 o         1 MOL     -0.612066
    168 H71        -4.4080    0.0100    1.4690 hn        1 MOL      0.051116
    169 H72        -3.5620   -2.2290    3.1900 h1        1 MOL      0.085882
    170 H73        -1.2990   -1.1270    3.3530 hc        1 MOL      0.017906
    171 H74        -1.9270    0.2810    2.5670 hc        1 MOL      0.017906
    172 H75        -2.3330   -1.1780    0.4900 hc        1 MOL      0.048571
    173 H76        -1.6050   -2.4740    1.4280 hc        1 MOL      0.048571
    174 N15        -4.3960    0.7940    4.1180 n         1 MOL     -0.111388
    175 C58        -4.8030    1.5200    5.3010 c3        1 MOL     -0.189813
    176 H77        -5.8530    1.3140    5.5100 h1        1 MOL      0.072137
    177 H78        -4.1960    1.2050    6.1500 h1        1 MOL      0.072137
    178 H79        -4.6690    2.5890    5.1360 h1        1 MOL      0.072137
    179 H80        -4.4150    1.2650    3.2270 hn        1 MOL      0.081818
    180 Ca1         2.7580   -0.3220    0.3960 Ca        1 MOL      1.722884
    181 O27         2.5150   -0.4170    3.0350 oh        1 MOL     -0.932768
    182 H81         1.8120   -0.7440    3.6050 ho        1 MOL      0.436118
    183 H82         3.0970    0.0720    3.6230 ho        1 MOL      0.436118
    184 O28         5.0440   -0.2600    1.6380 oh        1 MOL     -0.932768
    185 H83         4.8360    0.1360    2.4830 ho        1 MOL      0.436118
    186 H84         5.8130   -0.8080    1.8110 ho        1 MOL      0.436118
    187 O29         1.3410    1.3360   -1.3900 oh        1 MOL     -0.932768
    188 H85         2.1160    1.8420   -1.6490 ho        1 MOL      0.436118
    189 H86         1.1960    0.7260   -2.1110 ho        1 MOL      0.436118
@<TRIPOS>BOND
     1    1    2 1   
     2    1    4 1   
     3    1    5 1   
     4    1    6 1   
     5    2    3 2   
     6    2    7 1   
     7    7    8 1   
     8    7   15 1   
     9    8    9 1   
    10    8   11 1   
    11    8   16 1   
    12    9   10 2   
    13    9   19 1   
    14   11   12 1   
    15   11   17 1   
    16   11   18 1   
    17   12   13 1   
    18   12   14 1   
    19   19   20 1   
    20   19   27 1   
    21   20   21 1   
    22   20   23 1   
    23   20   28 1   
    24   21   22 2   
    25   21   38 1   
    26   23   24 1   
    27   23   25 1   
    28   23   29 1   
    29   24   26 1   
    30   24   30 1   
    31   24   31 1   
    32   25   32 1   
    33   25   33 1   
    34   25   34 1   
    35   26   35 1   
    36   26   36 1   
    37   26   37 1   
    38   38   39 1   
    39   38   46 1   
    40   39   40 1   
    41   39   42 1   
    42   39   47 1   
    43   40   41 2   
    44   40   50 1   
    45   42   43 1   
    46   42   48 1   
    47   42   49 1   
    48   43   44 1   
    49   43   45 1   
    50   50   51 1   
    51   50   54 1   
    52   51   52 1   
    53   51   55 1   
    54   51   56 1   
    55   52   53 2   
    56   52   57 1   
    57   57   58 1   
    58   57   65 1   
    59   58   59 1   
    60   58   61 1   
    61   58   66 1   
    62   59   60 2   
    63   59   69 1   
    64   61   62 1   
    65   61   67 1   
    66   61   68 1   
    67   62   63 1   
    68   62   64 1   
    69   69   70 1   
    70   69   73 1   
    71   70   71 1   
    72   70   74 1   
    73   70   75 1   
    74   71   72 2   
    75   71   76 1   
    76   76   77 1   
    77   76   85 1   
    78   77   78 1   
    79   77   80 1   
    80   77   86 1   
    81   78   79 2   
    82   78   93 1   
    83   80   81 1   
    84   80   87 1   
    85   80   88 1   
    86   81   82 1   
    87   81   89 1   
    88   81   90 1   
    89   82   83 1   
    90   82   84 2   
    91   83   91 1   
    92   83   92 1   
    93   93   94 1   
    94   93  100 1   
    95   94   95 1   
    96   94   97 1   
    97   94  101 1   
    98   95   96 2   
    99   95  109 1   
   100   97   98 1   
   101   97   99 1   
   102   97  102 1   
   103   98  103 1   
   104   98  104 1   
   105   98  105 1   
   106   99  106 1   
   107   99  107 1   
   108   99  108 1   
   109  109  110 1   
   110  109  117 1   
   111  110  111 1   
   112  110  113 1   
   113  110  118 1   
   114  111  112 2   
   115  111  123 1   
   116  113  114 1   
   117  113  119 1   
   118  113  120 1   
   119  114  115 1   
   120  114  116 2   
   121  115  121 1   
   122  115  122 1   
   123  123  124 1   
   124  123  135 1   
   125  124  125 1   
   126  124  127 1   
   127  124  136 1   
   128  125  126 2   
   129  125  144 1   
   130  127  128 1   
   131  127  137 1   
   132  127  138 1   
   133  128  129 ar  
   134  128  130 ar  
   135  129  131 ar  
   136  129  139 1   
   137  130  132 ar  
   138  130  140 1   
   139  131  133 ar  
   140  131  141 1   
   141  132  133 ar  
   142  132  142 1   
   143  133  134 1   
   144  134  143 1   
   145  144  145 1   
   146  144  153 1   
   147  145  146 1   
   148  145  148 1   
   149  145  154 1   
   150  146  147 2   
   151  146  159 1   
   152  148  149 1   
   153  148  155 1   
   154  148  156 1   
   155  149  150 1   
   156  149  157 1   
   157  149  158 1   
   158  150  151 1   
   159  150  152 1   
   160  159  160 1   
   161  159  168 1   
   162  160  161 1   
   163  160  163 1   
   164  160  169 1   
   165  161  162 2   
   166  161  174 1   
   167  163  164 1   
   168  163  170 1   
   169  163  171 1   
   170  164  165 1   
   171  164  172 1   
   172  164  173 1   
   173  165  166 1   
   174  165  167 1   
   175  174  175 1   
   176  174  179 1   
   177  175  176 1   
   178  175  177 1   
   179  175  178 1   
   180  181  182 1   
   181  181  183 1   
   182  184  185 1   
   183  184  186 1   
   184  187  188 1   
   185  187  189 1   
@<TRIPOS>SUBSTRUCTURE
     1 MOL         1 TEMP              0 ****  ****    0 ROOT
