@<TRIPOS>MOLECULE
MOL
  189   185     1     0     0
SMALL
resp


@<TRIPOS>ATOM
      1 C1          0.1220    3.0700    5.2500 c3        1 MOL     -0.522037
      2 C2         -0.4130    2.7940    3.8550 c         1 MOL      0.710677
      3 O1          0.1880    3.2070    2.8630 o         1 MOL     -0.539392
      4 H1          0.4900    4.0940    5.3010 hc        1 MOL      0.136534
      5 H2         -0.6770    2.9350    5.9790 hc        1 MOL      0.136534
      6 H3          0.9360    2.3810    5.4700 hc        1 MOL      0.136534
      7 N1         -1.5610    2.0770    3.7130 n         1 MOL     -0.611544
      8 C3         -2.2030    1.8760    2.3890 c3        1 MOL      0.321475
      9 C4         -2.3840    3.2570    1.7560 c         1 MOL      0.315869
     10 O2         -3.1960    4.0590    2.1570 o         1 MOL     -0.517357
     11 C5         -3.5320    1.1910    2.6570 c3        1 MOL     -0.394054
     12 C6         -4.2120    0.7100    1.3630 c         1 MOL      0.892870
     13 O3         -3.6430    0.9690    0.2640 o         1 MOL     -0.686037
     14 O4         -5.2780    0.0470    1.4800 o         1 MOL     -0.686037
     15 H4         -1.9780    1.7460    4.5710 hn        1 MOL      0.338194
     16 H5         -1.5590    1.2550    1.7560 h1        1 MOL     -0.024258
     17 H6         -4.1470    1.9500    3.1450 hc        1 MOL      0.083978
     18 H7         -3.4180    0.3130    3.2870 hc        1 MOL      0.083978
     19 N2         -1.6780    3.5210    0.6020 n         1 MOL      0.042198
     20 C7         -1.7550    4.8090   -0.0510 c3        1 MOL     -0.097129
     21 C8         -2.7760    4.9280   -1.2290 c         1 MOL      0.544283
     22 O5         -3.0630    6.0700   -1.6010 o         1 MOL     -0.585544
     23 C9         -0.3330    5.0970   -0.5110 c3        1 MOL      0.009864
     24 C10         0.7680    5.3130    0.5200 c3        1 MOL     -0.105349
     25 C11         0.2780    6.3360    1.6340 c3        1 MOL     -0.016952
     26 C12         1.4230    6.8810    2.5440 c3        1 MOL      0.027707
     27 N3          0.9070    7.8390    3.4790 n4        1 MOL     -0.324136
     28 H8         -1.0840    2.8000    0.2210 hn        1 MOL      0.150246
     29 H9         -1.9900    5.5780    0.6780 h1        1 MOL      0.012035
     30 H10        -0.3660    5.8750   -1.2740 hc        1 MOL      0.019242
     31 H11        -0.0620    4.2370   -1.1240 hc        1 MOL      0.019242
     32 H12         1.6440    5.6930    0.0010 hc        1 MOL      0.041700
     33 H13         1.0840    4.3650    0.9570 hc        1 MOL      0.041700
     34 H14        -0.4760    5.8980    2.2920 hc        1 MOL      0.045358
     35 H15        -0.0780    7.2100    1.0990 hc        1 MOL      0.045358
     36 H16         2.0910    7.4590    1.9100 hx        1 MOL      0.068667
     37 H17         1.8150    5.9540    2.9650 hx        1 MOL      0.068667
     38 H18         0.5300    7.3970    4.3070 hn        1 MOL      0.317420
     39 H19         1.6960    8.4480    3.6690 hn        1 MOL      0.317420
     40 H20         0.1990    8.3990    3.0200 hn        1 MOL      0.317420
     41 N4         -3.2710    3.8410   -1.7170 n         1 MOL     -0.313593
     42 C13        -4.2420    3.7530   -2.8240 c3        1 MOL      0.015161
     43 C14        -5.7080    3.1980   -2.5470 c         1 MOL      0.371711
     44 O6         -6.6210    3.2090   -3.3870 o         1 MOL     -0.474488
     45 C15        -3.6090    2.9980   -3.9970 c3        1 MOL     -0.195880
     46 C16        -3.0580    1.5940   -3.7830 c         1 MOL      0.867975
     47 O7         -2.3400    1.1520   -4.7120 o         1 MOL     -0.732976
     48 O8         -3.2670    0.8670   -2.7820 o         1 MOL     -0.732976
     49 H21        -2.9790    2.9840   -1.2790 hn        1 MOL      0.180865
     50 H22        -4.4340    4.7840   -3.1330 h1        1 MOL      0.084372
     51 H23        -2.8510    3.6500   -4.4320 hc        1 MOL      0.047338
     52 H24        -4.3990    2.8640   -4.7320 hc        1 MOL      0.047338
     53 N5         -5.7750    2.7580   -1.3240 n         1 MOL     -0.119226
     54 C17        -7.0020    2.2240   -0.7840 c3        1 MOL     -0.226011
     55 C18        -7.4970    1.0120   -1.4700 c         1 MOL      0.676206
     56 O9         -8.4850    1.0630   -2.2060 o         1 MOL     -0.553628
     57 H25        -4.9640    2.7430   -0.7240 hn        1 MOL      0.174954
     58 H26        -7.7660    2.9750   -1.0060 h1        1 MOL      0.081202
     59 H27        -7.0560    2.0650    0.2860 h1        1 MOL      0.081202
     60 N6         -6.8220   -0.1560   -1.1280 n         1 MOL     -0.448935
     61 C19        -7.1490   -1.4900   -1.5830 c3        1 MOL      0.158927
     62 C20        -7.1220   -2.5900   -0.4900 c         1 MOL      0.416318
     63 O10        -7.7500   -3.6030   -0.7960 o         1 MOL     -0.566284
     64 C21        -6.2310   -1.9700   -2.6450 c3        1 MOL     -0.145911
     65 C22        -4.7520   -2.0800   -2.3540 c         1 MOL      0.753840
     66 O11        -4.3940   -1.7880   -1.2320 o         1 MOL     -0.692466
     67 O12        -3.9330   -2.4960   -3.2080 o         1 MOL     -0.692466
     68 H28        -6.0520   -0.0350   -0.4820 hn        1 MOL      0.111740
     69 H29        -8.1720   -1.4060   -1.9500 h1        1 MOL      0.040983
     70 H30        -6.3610   -1.3790   -3.5500 hc        1 MOL      0.038742
     71 H31        -6.4660   -2.9880   -2.9430 hc        1 MOL      0.038742
     72 N7         -6.6370   -2.4020    0.6770 n         1 MOL     -0.237987
     73 C23        -6.7160   -3.3570    1.7520 c3        1 MOL      0.038052
     74 C24        -5.4380   -4.1660    2.0000 c         1 MOL      0.400231
     75 O13        -5.3980   -5.0460    2.8520 o         1 MOL     -0.561519
     76 H32        -6.2430   -1.5000    0.8880 hn        1 MOL      0.228400
     77 H33        -7.5710   -4.0180    1.6460 h1        1 MOL      0.060975
     78 H34        -7.0070   -2.8660    2.6810 h1        1 MOL      0.060975
     79 N8         -4.3320   -3.9260    1.2570 n         1 MOL     -0.102961
     80 C25        -3.0260   -4.4830    1.5010 c3        1 MOL     -0.112566
     81 C26        -1.9530   -3.3840    1.4960 c         1 MOL      0.667544
     82 O14        -2.2000   -2.3210    0.9870 o         1 MOL     -0.682873
     83 C27        -2.6900   -5.6620    0.5360 c3        1 MOL      0.315637
     84 C28        -3.5820   -6.8860    0.7770 c3        1 MOL     -0.379959
     85 O15        -2.9050   -5.2510   -0.7490 oh        1 MOL     -0.604445
     86 H35        -4.4530   -3.1740    0.6060 hn        1 MOL      0.162534
     87 H36        -3.0080   -4.8270    2.5330 h1        1 MOL      0.086370
     88 H37        -1.6850   -6.0200    0.7310 h1        1 MOL     -0.008690
     89 H38        -2.7890   -6.0110   -1.3310 ho        1 MOL      0.415435
     90 H39        -3.5080   -7.0730    1.8480 hc        1 MOL      0.105753
     91 H40        -4.6200   -6.6640    0.5240 hc        1 MOL      0.105753
     92 H41        -3.2290   -7.7670    0.2350 hc        1 MOL      0.105753
     93 N9         -0.7400   -3.6790    2.0470 n         1 MOL     -0.539858
     94 C29         0.4310   -2.7810    2.1160 c3        1 MOL     -0.063826
     95 C30         1.5480   -3.3740    1.2210 c         1 MOL      0.554032
     96 O16         2.0630   -4.4200    1.5270 o         1 MOL     -0.575333
     97 C31         0.9680   -2.4220    3.5010 c3        1 MOL      0.235806
     98 C32        -0.0390   -2.4430    4.6710 c3        1 MOL      0.171504
     99 C33         1.8880   -1.2200    3.4720 c3        1 MOL     -0.395734
    100 C34         0.6230   -2.4010    6.0360 c3        1 MOL     -0.243378
    101 H42        -0.6600   -4.6010    2.4410 hn        1 MOL      0.283795
    102 H43         0.2190   -1.8240    1.6290 h1        1 MOL      0.177928
    103 H44         1.6080   -3.2510    3.7980 hc        1 MOL     -0.011427
    104 H45        -0.7740   -3.2570    4.6340 hc        1 MOL     -0.036959
    105 H46        -0.6500   -1.5360    4.6230 hc        1 MOL     -0.036959
    106 H47         1.2750   -0.4120    3.0850 hc        1 MOL      0.075541
    107 H48         2.3120   -1.1400    4.4820 hc        1 MOL      0.075541
    108 H49         2.7400   -1.3510    2.7990 hc        1 MOL      0.075541
    109 H50         1.3910   -3.1640    6.0800 hc        1 MOL      0.053120
    110 H51         1.0360   -1.4180    6.2350 hc        1 MOL      0.053120
    111 H52        -0.1340   -2.6610    6.7870 hc        1 MOL      0.053120
    112 N10         2.0930   -2.5420    0.3310 n         1 MOL     -0.207875
    113 C35         3.3920   -2.8640   -0.3690 c3        1 MOL      0.037225
    114 C36         4.7200   -2.4280    0.2440 c         1 MOL      0.395420
    115 O17         4.7390   -1.5480    1.1450 o         1 MOL     -0.378149
    116 C37         3.4220   -2.3350   -1.7980 c3        1 MOL      0.041337
    117 C38         2.2170   -2.7100   -2.6680 c3        1 MOL     -0.293485
    118 O18         3.5460   -0.9880   -1.7750 oh        1 MOL     -0.337089
    119 H53         1.5660   -1.6870    0.2260 hn        1 MOL      0.141538
    120 H54         3.4650   -3.9570   -0.3830 h1        1 MOL      0.083234
    121 H55         4.3610   -2.6860   -2.2390 h1        1 MOL      0.017555
    122 H56         2.9280   -0.6480   -2.4240 ho        1 MOL      0.360877
    123 H57         2.3890   -2.6080   -3.7340 hc        1 MOL      0.098788
    124 H58         1.8590   -3.7120   -2.4280 hc        1 MOL      0.098788
    125 H59         1.3490   -2.0690   -2.4870 hc        1 MOL      0.098788
    126 N11         5.9090   -2.8410   -0.2970 n         1 MOL     -0.388344
    127 C39         7.2470   -2.3830    0.1790 c3        1 MOL     -0.043314
    128 C40         7.5420   -0.9670   -0.1980 c         1 MOL      0.324512
    129 O19         8.4430   -0.4340    0.4480 o         1 MOL     -0.507479
    130 C41         8.2870   -3.2160   -0.5750 c3        1 MOL      0.213422
    131 C42         8.2660   -4.6750   -0.1070 c3        1 MOL     -0.432462
    132 O20         7.9960   -3.1970   -1.9550 oh        1 MOL     -0.609380
    133 H60         5.8990   -3.5780   -0.9930 hn        1 MOL      0.287708
    134 H61         7.3850   -2.5550    1.2380 h1        1 MOL      0.156426
    135 H62         9.2490   -2.7600   -0.3810 h1        1 MOL      0.051509
    136 H63         8.5520   -3.8820   -2.3370 ho        1 MOL      0.393240
    137 H64         8.1390   -4.8920    0.9520 hc        1 MOL      0.133558
    138 H65         7.5290   -5.2500   -0.6810 hc        1 MOL      0.133558
    139 H66         9.2430   -5.0840   -0.3810 hc        1 MOL      0.133558
    140 N12         6.8680   -0.2890   -1.2050 n         1 MOL      0.058006
    141 C43         6.9420    1.1590   -1.3350 c3        1 MOL      0.081038
    142 C44         5.9580    1.7700   -0.3860 c         1 MOL      0.332199
    143 O21         6.1240    2.8620    0.0560 o         1 MOL     -0.503004
    144 C45         6.6940    1.6200   -2.7860 c3        1 MOL     -0.163376
    145 C46         7.9340    2.2060   -3.5020 c3        1 MOL     -0.068522
    146 C47         9.2080    1.3580   -3.3400 c3        1 MOL     -0.028828
    147 C48         8.9030   -0.0500   -3.9070 c3        1 MOL      0.200990
    148 N13        10.0490   -0.9200   -3.7540 n4        1 MOL     -0.412467
    149 H67         6.0260   -0.7060   -1.5590 hn        1 MOL      0.115589
    150 H68         7.8760    1.5470   -0.9190 h1        1 MOL      0.061776
    151 H69         5.8930    2.3510   -2.8280 hc        1 MOL      0.052850
    152 H70         6.2250    0.7720   -3.2820 hc        1 MOL      0.052850
    153 H71         8.0600    3.2160   -3.1250 hc        1 MOL      0.080893
    154 H72         7.8200    2.3200   -4.5810 hc        1 MOL      0.080893
    155 H73         9.5320    1.1650   -2.3180 hc        1 MOL      0.020165
    156 H74        10.0100    1.8400   -3.9020 hc        1 MOL      0.020165
    157 H75         8.6490    0.0380   -4.9680 hx        1 MOL     -0.000075
    158 H76         8.0840   -0.4430   -3.3070 hx        1 MOL     -0.000075
    159 H77        10.2860   -1.0080   -2.7800 hn        1 MOL      0.301511
    160 H78         9.8650   -1.8510   -4.0810 hn        1 MOL      0.301511
    161 H79        10.8840   -0.5910   -4.2110 hn        1 MOL      0.301511
    162 N14         4.8250    1.1440   -0.0610 n         1 MOL      0.034505
    163 C49         3.8200    1.8210    0.7760 c3        1 MOL      0.034155
    164 C50         4.1830    2.0360    2.2360 c         1 MOL      0.337788
    165 O22         4.0660    3.0960    2.7620 o         1 MOL     -0.523301
    166 C51         2.4670    1.1630    0.8460 c3        1 MOL      0.066265
    167 C52         1.7290    1.5960   -0.4300 c3        1 MOL     -0.119919
    168 C53         0.4460    0.8150   -0.6810 c         1 MOL      0.729923
    169 O23        -0.4640    1.3650   -1.3390 o         1 MOL     -0.786416
    170 O24         0.2690   -0.3470   -0.2780 o         1 MOL     -0.786416
    171 H80         4.5210    0.2700   -0.4590 hn        1 MOL     -0.152623
    172 H81         3.5960    2.8250    0.4140 h1        1 MOL      0.057968
    173 H82         1.7960    1.4380    1.6610 hc        1 MOL      0.016418
    174 H83         2.4220    0.0720    0.8650 hc        1 MOL      0.016418
    175 H84         2.4710    1.5450   -1.2220 hc        1 MOL      0.024887
    176 H85         1.4000    2.6150   -0.2580 hc        1 MOL      0.024887
    177 N15         4.8440    1.0250    2.8080 n         1 MOL     -0.082330
    178 C54         5.7560    1.0330    4.0200 c3        1 MOL     -0.141646
    179 H86         5.9500    2.0620    4.3210 h1        1 MOL      0.077577
    180 H87         5.2770    0.4990    4.8400 h1        1 MOL      0.077577
    181 H88         6.6980    0.5450    3.7700 h1        1 MOL      0.077577
    182 H89         4.8150    0.2190    2.2040 hn        1 MOL      0.092032
    183 Ca1        -2.1130   -0.7290   -1.0980 Ca        1 MOL      1.721322
    184 O25        -0.9120   -0.6920   -3.6830 oh        1 MOL     -0.808288
    185 H90        -1.5030   -0.0930   -4.1360 ho        1 MOL      0.383689
    186 H91        -0.0810   -0.2070   -3.6260 ho        1 MOL      0.383689
    187 O26        -1.4590   -3.2190   -2.0030 oh        1 MOL     -0.808288
    188 H92        -2.0130   -3.8620   -1.5580 ho        1 MOL      0.383689
    189 H93        -1.9000   -3.0710   -2.8420 ho        1 MOL      0.383689
@<TRIPOS>BOND
     1    1    2 1   
     2    1    4 1   
     3    1    5 1   
     4    1    6 1   
     5    2    3 2   
     6    2    7 1   
     7    7    8 1   
     8    7   15 1   
     9    8    9 1   
    10    8   11 1   
    11    8   16 1   
    12    9   10 2   
    13    9   19 1   
    14   11   12 1   
    15   11   17 1   
    16   11   18 1   
    17   12   13 1   
    18   12   14 1   
    19   19   20 1   
    20   19   28 1   
    21   20   21 1   
    22   20   23 1   
    23   20   29 1   
    24   21   22 2   
    25   21   41 1   
    26   23   24 1   
    27   23   30 1   
    28   23   31 1   
    29   24   25 1   
    30   24   32 1   
    31   24   33 1   
    32   25   26 1   
    33   25   34 1   
    34   25   35 1   
    35   26   27 1   
    36   26   36 1   
    37   26   37 1   
    38   27   38 1   
    39   27   39 1   
    40   27   40 1   
    41   41   42 1   
    42   41   49 1   
    43   42   43 1   
    44   42   45 1   
    45   42   50 1   
    46   43   44 2   
    47   43   53 1   
    48   45   46 1   
    49   45   51 1   
    50   45   52 1   
    51   46   47 1   
    52   46   48 1   
    53   53   54 1   
    54   53   57 1   
    55   54   55 1   
    56   54   58 1   
    57   54   59 1   
    58   55   56 2   
    59   55   60 1   
    60   60   61 1   
    61   60   68 1   
    62   61   62 1   
    63   61   64 1   
    64   61   69 1   
    65   62   63 2   
    66   62   72 1   
    67   64   65 1   
    68   64   70 1   
    69   64   71 1   
    70   65   66 1   
    71   65   67 1   
    72   72   73 1   
    73   72   76 1   
    74   73   74 1   
    75   73   77 1   
    76   73   78 1   
    77   74   75 2   
    78   74   79 1   
    79   79   80 1   
    80   79   86 1   
    81   80   81 1   
    82   80   83 1   
    83   80   87 1   
    84   81   82 2   
    85   81   93 1   
    86   83   84 1   
    87   83   85 1   
    88   83   88 1   
    89   84   90 1   
    90   84   91 1   
    91   84   92 1   
    92   85   89 1   
    93   93   94 1   
    94   93  101 1   
    95   94   95 1   
    96   94   97 1   
    97   94  102 1   
    98   95   96 2   
    99   95  112 1   
   100   97   98 1   
   101   97   99 1   
   102   97  103 1   
   103   98  100 1   
   104   98  104 1   
   105   98  105 1   
   106   99  106 1   
   107   99  107 1   
   108   99  108 1   
   109  100  109 1   
   110  100  110 1   
   111  100  111 1   
   112  112  113 1   
   113  112  119 1   
   114  113  114 1   
   115  113  116 1   
   116  113  120 1   
   117  114  115 2   
   118  114  126 1   
   119  116  117 1   
   120  116  118 1   
   121  116  121 1   
   122  117  123 1   
   123  117  124 1   
   124  117  125 1   
   125  118  122 1   
   126  126  127 1   
   127  126  133 1   
   128  127  128 1   
   129  127  130 1   
   130  127  134 1   
   131  128  129 2   
   132  128  140 1   
   133  130  131 1   
   134  130  132 1   
   135  130  135 1   
   136  131  137 1   
   137  131  138 1   
   138  131  139 1   
   139  132  136 1   
   140  140  141 1   
   141  140  149 1   
   142  141  142 1   
   143  141  144 1   
   144  141  150 1   
   145  142  143 2   
   146  142  162 1   
   147  144  145 1   
   148  144  151 1   
   149  144  152 1   
   150  145  146 1   
   151  145  153 1   
   152  145  154 1   
   153  146  147 1   
   154  146  155 1   
   155  146  156 1   
   156  147  148 1   
   157  147  157 1   
   158  147  158 1   
   159  148  159 1   
   160  148  160 1   
   161  148  161 1   
   162  162  163 1   
   163  162  171 1   
   164  163  164 1   
   165  163  166 1   
   166  163  172 1   
   167  164  165 2   
   168  164  177 1   
   169  166  167 1   
   170  166  173 1   
   171  166  174 1   
   172  167  168 1   
   173  167  175 1   
   174  167  176 1   
   175  168  169 1   
   176  168  170 1   
   177  177  178 1   
   178  177  182 1   
   179  178  179 1   
   180  178  180 1   
   181  178  181 1   
   182  184  185 1   
   183  184  186 1   
   184  187  188 1   
   185  187  189 1   
@<TRIPOS>SUBSTRUCTURE
     1 MOL         1 TEMP              0 ****  ****    0 ROOT
