@<TRIPOS>MOLECULE
MOL
  169   169     1     0     0
SMALL
resp


@<TRIPOS>ATOM
      1 C1          0.7140    4.4630    5.5630 c3        1 MOL     -0.355517
      2 C2          0.1910    4.3740    4.0870 c         1 MOL      0.663360
      3 O1          0.9310    4.6870    3.1450 o         1 MOL     -0.548595
      4 H1          0.1610    3.7600    6.1870 hc        1 MOL      0.087909
      5 H2          1.7740    4.2140    5.5890 hc        1 MOL      0.087909
      6 H3          0.5680    5.4750    5.9410 hc        1 MOL      0.087909
      7 N1         -1.0310    3.8450    3.8930 n         1 MOL     -0.549942
      8 C3         -1.6200    3.5460    2.5850 c3        1 MOL      0.195974
      9 C4         -1.9310    4.6710    1.6120 c         1 MOL      0.490126
     10 O2         -2.3200    5.7200    2.0690 o         1 MOL     -0.553686
     11 C5         -2.8570    2.7030    2.8720 c3        1 MOL     -0.338327
     12 C6         -3.7050    2.1640    1.6810 c         1 MOL      0.785036
     13 O3         -4.9230    2.5490    1.7250 o         1 MOL     -0.690985
     14 O4         -3.3300    1.2620    0.9440 o         1 MOL     -0.690985
     15 H4         -1.6160    3.8680    4.7140 hn        1 MOL      0.302006
     16 H5         -1.0290    2.8280    2.0240 h1        1 MOL      0.036970
     17 H6         -3.5160    3.3780    3.4270 hc        1 MOL      0.073440
     18 H7         -2.5400    1.8280    3.4480 hc        1 MOL      0.073440
     19 N2         -1.8250    4.4460    0.3090 n         1 MOL     -0.455933
     20 C7         -2.1680    5.3720   -0.6970 c3        1 MOL      0.495721
     21 C8         -3.0410    4.8910   -1.8350 c         1 MOL      0.292314
     22 O5         -3.0430    5.5100   -2.9240 o         1 MOL     -0.541130
     23 C9         -0.8260    5.9010   -1.1850 c3        1 MOL     -0.309092
     24 H8         -1.3250    3.6230   -0.0060 hn        1 MOL      0.253536
     25 H9         -2.6820    6.2190   -0.2530 h1        1 MOL     -0.031855
     26 H10        -0.9530    6.7790   -1.8150 hc        1 MOL      0.065349
     27 H11        -0.2820    6.3690   -0.3620 hc        1 MOL      0.065349
     28 H12        -0.2810    5.1070   -1.6940 hc        1 MOL      0.065349
     29 N3         -3.7660    3.7460   -1.7700 n         1 MOL     -0.137118
     30 C10        -4.6950    3.3200   -2.8120 c3        1 MOL     -0.017717
     31 C11        -5.9600    2.5490   -2.3520 c         1 MOL      0.458041
     32 O6         -6.7670    2.2320   -3.2540 o         1 MOL     -0.498020
     33 C12        -3.9170    2.3810   -3.8020 c3        1 MOL     -0.140387
     34 C13        -3.3150    1.1850   -3.0520 c         1 MOL      0.795182
     35 O7         -3.9250    0.6400   -2.1360 o         1 MOL     -0.757502
     36 O8         -2.1300    0.7310   -3.3380 o         1 MOL     -0.757502
     37 H13        -3.7730    3.2260   -0.9000 hn        1 MOL      0.010158
     38 H14        -5.0030    4.2310   -3.3250 h1        1 MOL      0.089909
     39 H15        -3.1710    2.9790   -4.3300 hc        1 MOL      0.035531
     40 H16        -4.6710    2.0130   -4.5060 hc        1 MOL      0.035531
     41 N4         -6.2170    2.4120   -1.0200 n         1 MOL     -0.367554
     42 C14        -7.4950    1.8370   -0.5810 c3        1 MOL     -0.157032
     43 C15        -7.8120    0.4050   -0.9850 c         1 MOL      0.386045
     44 O9         -8.9840    0.1500   -1.2290 o         1 MOL     -0.549156
     45 H17        -5.5410    2.6010   -0.2950 hn        1 MOL      0.283002
     46 H18        -8.3050    2.4240   -1.0110 h1        1 MOL      0.112143
     47 H19        -7.5700    1.8550    0.5110 h1        1 MOL      0.112143
     48 N5         -6.7680   -0.4000   -1.2880 n         1 MOL     -0.073380
     49 C16        -6.9420   -1.8910   -1.4570 c3        1 MOL     -0.157400
     50 C17        -6.9150   -2.7340   -0.2180 c         1 MOL      0.526230
     51 O10        -7.0000   -3.9640   -0.3490 o         1 MOL     -0.528232
     52 C18        -5.8750   -2.2910   -2.5450 c3        1 MOL     -0.070671
     53 C19        -4.4340   -2.2810   -2.0380 c         1 MOL      0.622189
     54 N6         -3.5920   -2.9820   -2.7030 n         1 MOL     -0.675206
     55 O11        -4.1630   -1.8040   -0.9210 o         1 MOL     -0.612840
     56 H20        -5.8390   -0.0070   -1.2210 hn        1 MOL      0.148493
     57 H21        -7.9340   -2.0290   -1.9010 h1        1 MOL      0.132125
     58 H22        -5.8830   -1.5590   -3.3630 hc        1 MOL      0.044526
     59 H23        -6.2220   -3.2340   -2.9570 hc        1 MOL      0.044526
     60 H24        -3.8060   -3.2150   -3.6640 hn        1 MOL      0.343567
     61 H25        -2.6400   -2.9640   -2.3740 hn        1 MOL      0.343567
     62 N7         -6.7290   -2.1860    1.0180 n         1 MOL     -0.440149
     63 C20        -6.5690   -3.0050    2.2300 c3        1 MOL     -0.029345
     64 C21        -5.2470   -3.8180    2.4320 c         1 MOL      0.379934
     65 O12        -5.2380   -4.6960    3.2690 o         1 MOL     -0.545100
     66 H26        -6.5910   -1.1790    1.0210 hn        1 MOL      0.308523
     67 H27        -7.3320   -3.7880    2.2730 h1        1 MOL      0.083680
     68 H28        -6.8020   -2.4260    3.1200 h1        1 MOL      0.083680
     69 N8         -4.2420   -3.5910    1.5900 n         1 MOL      0.062198
     70 C22        -2.9000   -4.1800    1.7610 c3        1 MOL     -0.178867
     71 C23        -1.8030   -3.1190    1.8750 c         1 MOL      0.689407
     72 O13        -2.0370   -1.9500    1.6770 o         1 MOL     -0.643169
     73 C24        -2.4850   -5.1540    0.6670 c3        1 MOL      0.363636
     74 C25        -3.5120   -6.2900    0.4290 c3        1 MOL     -0.309653
     75 O14        -2.3460   -4.3890   -0.5190 oh        1 MOL     -0.650070
     76 H29        -4.2350   -2.8440    0.9140 hn        1 MOL      0.077107
     77 H30        -2.8600   -4.6820    2.7290 h1        1 MOL      0.064555
     78 H31        -1.5000   -5.5790    0.8530 h1        1 MOL      0.012593
     79 H32        -2.7580   -4.8380   -1.2580 ho        1 MOL      0.400074
     80 H33        -3.1470   -7.0930   -0.2160 hc        1 MOL      0.073227
     81 H34        -3.6250   -6.7580    1.4010 hc        1 MOL      0.073227
     82 H35        -4.4890   -5.9130    0.1120 hc        1 MOL      0.073227
     83 N9         -0.5570   -3.5010    2.1460 n         1 MOL     -0.576212
     84 C26         0.5900   -2.6740    1.9070 c3        1 MOL      0.045912
     85 C27         1.3350   -3.2140    0.7060 c         1 MOL      0.759884
     86 O15         1.6380   -4.3920    0.6670 o         1 MOL     -0.614685
     87 C28         1.3780   -2.7400    3.2140 c3        1 MOL      0.045803
     88 C29         0.9450   -1.5900    4.0550 c3        1 MOL      0.114975
     89 C30         2.9300   -2.6610    2.9860 c3        1 MOL     -0.233899
     90 C31         1.4740   -1.6500    5.5370 c3        1 MOL     -0.164748
     91 H36        -0.3350   -4.4740    2.3230 hn        1 MOL      0.288404
     92 H37         0.4360   -1.6080    1.7140 h1        1 MOL      0.011768
     93 H38         1.1600   -3.7040    3.6840 hc        1 MOL      0.011973
     94 H39        -0.1390   -1.5080    4.0550 hc        1 MOL      0.009938
     95 H40         1.2720   -0.6760    3.5550 hc        1 MOL      0.009938
     96 H41         3.1280   -1.7410    2.4350 hc        1 MOL      0.041411
     97 H42         3.3970   -2.7290    3.9620 hc        1 MOL      0.041411
     98 H43         3.2150   -3.5920    2.4880 hc        1 MOL      0.041411
     99 H44         2.5100   -1.3230    5.5300 hc        1 MOL      0.026028
    100 H45         0.9050   -0.8630    6.0470 hc        1 MOL      0.026028
    101 H46         1.4240   -2.5730    6.1140 hc        1 MOL      0.026028
    102 N10         1.7140   -2.3230   -0.1910 n         1 MOL     -0.603707
    103 C32         2.5360   -2.5440   -1.3190 c3        1 MOL      0.120886
    104 C33         3.9590   -1.8860   -1.0790 c         1 MOL      0.487197
    105 O16         4.1270   -1.1680   -0.1320 o         1 MOL     -0.254579
    106 C34         1.7840   -1.8620   -2.5510 c3        1 MOL     -0.260429
    107 C35         0.3170   -2.2710   -2.7540 c         1 MOL      0.716728
    108 O17        -0.5870   -1.7880   -1.9870 o         1 MOL     -0.667942
    109 O18        -0.0550   -2.9020   -3.7790 o         1 MOL     -0.667942
    110 H47         1.3370   -1.3820   -0.1750 hn        1 MOL      0.279563
    111 H48         2.5740   -3.5760   -1.6550 h1        1 MOL      0.059740
    112 H49         2.4500   -2.1220   -3.3760 hc        1 MOL      0.063455
    113 H50         1.9530   -0.7960   -2.4130 hc        1 MOL      0.063455
    114 N11         4.9640   -2.0920   -1.9010 n         1 MOL     -0.770392
    115 C36         6.3300   -1.7160   -1.5400 c3        1 MOL      0.426043
    116 C37         6.5940   -0.2800   -1.0480 c         1 MOL      0.215371
    117 O19         7.0850   -0.0990    0.0470 o         1 MOL     -0.451436
    118 C38         7.4110   -2.0290   -2.5450 c3        1 MOL     -0.247472
    119 C39         8.8500   -1.7620   -2.1260 ca        1 MOL      0.151900
    120 C40         9.3230   -2.5060   -1.0280 ca        1 MOL     -0.239890
    121 C41         9.6490   -0.7210   -2.6730 ca        1 MOL     -0.239890
    122 C42        10.6450   -2.2670   -0.4500 ca        1 MOL     -0.054907
    123 C43        10.9880   -0.6110   -2.2630 ca        1 MOL     -0.054907
    124 C44        11.4750   -1.3800   -1.1290 ca        1 MOL     -0.158322
    125 H51         4.8500   -2.8280   -2.5800 hn        1 MOL      0.369375
    126 H52         6.5250   -2.2980   -0.6470 h1        1 MOL      0.030616
    127 H53         7.1970   -1.4860   -3.4660 hc        1 MOL      0.060589
    128 H54         7.4040   -3.0930   -2.7870 hc        1 MOL      0.060589
    129 H55         8.6300   -3.0990   -0.4340 ha        1 MOL      0.139138
    130 H56         9.3250   -0.1770   -3.5410 ha        1 MOL      0.139138
    131 H57        11.0130   -2.8030    0.4090 ha        1 MOL      0.104800
    132 H58        11.6640    0.0580   -2.7670 ha        1 MOL      0.104800
    133 H59        12.4860   -1.1860   -0.7960 ha        1 MOL      0.106381
    134 N12         6.2190    0.7740   -1.7900 n         1 MOL      0.134168
    135 C45         6.5540    2.1540   -1.2780 c3        1 MOL     -0.039948
    136 C46         5.8460    2.4360    0.1180 c         1 MOL      0.281366
    137 O20         6.2630    3.3320    0.8510 o         1 MOL     -0.492655
    138 C47         6.1140    3.1440   -2.3470 c3        1 MOL     -0.078764
    139 C48         5.8300    2.2670   -3.6360 c3        1 MOL     -0.044939
    140 C49         5.6080    0.8300   -3.0580 c3        1 MOL     -0.092320
    141 H60         7.6240    2.2680   -1.1340 h1        1 MOL      0.067129
    142 H61         5.1250    3.5590   -2.1640 hc        1 MOL      0.062189
    143 H62         6.7820    3.9770   -2.5720 hc        1 MOL      0.062189
    144 H63         4.9700    2.7230   -4.1350 hc        1 MOL      0.028199
    145 H64         6.7150    2.2350   -4.2720 hc        1 MOL      0.028199
    146 H65         4.5580    0.5850   -2.9540 h1        1 MOL      0.048331
    147 H66         6.1820    0.1520   -3.6990 h1        1 MOL      0.048331
    148 N13         4.7260    1.7840    0.3880 n         1 MOL      0.005072
    149 C50         3.9720    1.9350    1.6400 c3        1 MOL     -0.316135
    150 C51         4.7430    1.3160    2.8150 c         1 MOL      0.575031
    151 O21         4.9070    1.9160    3.8560 o         1 MOL     -0.564479
    152 C52         2.5660    1.4200    1.4670 c3        1 MOL     -0.005443
    153 C53         1.7870    2.1660    0.3710 c3        1 MOL      0.474257
    154 C54         0.4270    1.4920    0.0810 c         1 MOL      0.368683
    155 O22         0.1810    0.3730    0.5290 o         1 MOL     -0.646647
    156 O23        -0.3540    1.9750   -0.7860 o         1 MOL     -0.646647
    157 H67         4.4700    0.9460   -0.1050 hn        1 MOL      0.065700
    158 H68         3.8480    3.0080    1.8150 h1        1 MOL      0.137132
    159 H69         2.0200    1.6320    2.3900 hc        1 MOL      0.012579
    160 H70         2.6180    0.3590    1.2310 hc        1 MOL      0.012579
    161 H71         2.3930    2.3860   -0.5020 hc        1 MOL     -0.098165
    162 H72         1.5620    3.1770    0.7050 hc        1 MOL     -0.098165
    163 N14         5.2460    0.0800    2.6170 n         1 MOL     -0.025906
    164 C55         6.2530   -0.5620    3.4650 c3        1 MOL     -0.389378
    165 H73         5.8930   -0.5960    4.4930 h1        1 MOL      0.129363
    166 H74         6.4340   -1.5760    3.1100 h1        1 MOL      0.129363
    167 H75         7.1800    0.0090    3.4250 h1        1 MOL      0.129363
    168 H76         5.1100   -0.1960    1.6600 hn        1 MOL      0.048491
    169 Ca1        -2.0720   -0.2300   -0.5460 Ca        1 MOL      1.725002
@<TRIPOS>BOND
     1    1    2 1   
     2    1    4 1   
     3    1    5 1   
     4    1    6 1   
     5    2    3 2   
     6    2    7 1   
     7    7    8 1   
     8    7   15 1   
     9    8    9 1   
    10    8   11 1   
    11    8   16 1   
    12    9   10 2   
    13    9   19 1   
    14   11   12 1   
    15   11   17 1   
    16   11   18 1   
    17   12   13 1   
    18   12   14 1   
    19   19   20 1   
    20   19   24 1   
    21   20   21 1   
    22   20   23 1   
    23   20   25 1   
    24   21   22 2   
    25   21   29 1   
    26   23   26 1   
    27   23   27 1   
    28   23   28 1   
    29   29   30 1   
    30   29   37 1   
    31   30   31 1   
    32   30   33 1   
    33   30   38 1   
    34   31   32 2   
    35   31   41 1   
    36   33   34 1   
    37   33   39 1   
    38   33   40 1   
    39   34   35 1   
    40   34   36 1   
    41   41   42 1   
    42   41   45 1   
    43   42   43 1   
    44   42   46 1   
    45   42   47 1   
    46   43   44 2   
    47   43   48 1   
    48   48   49 1   
    49   48   56 1   
    50   49   50 1   
    51   49   52 1   
    52   49   57 1   
    53   50   51 2   
    54   50   62 1   
    55   52   53 1   
    56   52   58 1   
    57   52   59 1   
    58   53   54 1   
    59   53   55 2   
    60   54   60 1   
    61   54   61 1   
    62   62   63 1   
    63   62   66 1   
    64   63   64 1   
    65   63   67 1   
    66   63   68 1   
    67   64   65 2   
    68   64   69 1   
    69   69   70 1   
    70   69   76 1   
    71   70   71 1   
    72   70   73 1   
    73   70   77 1   
    74   71   72 2   
    75   71   83 1   
    76   73   74 1   
    77   73   75 1   
    78   73   78 1   
    79   74   80 1   
    80   74   81 1   
    81   74   82 1   
    82   75   79 1   
    83   83   84 1   
    84   83   91 1   
    85   84   85 1   
    86   84   87 1   
    87   84   92 1   
    88   85   86 2   
    89   85  102 1   
    90   87   88 1   
    91   87   89 1   
    92   87   93 1   
    93   88   90 1   
    94   88   94 1   
    95   88   95 1   
    96   89   96 1   
    97   89   97 1   
    98   89   98 1   
    99   90   99 1   
   100   90  100 1   
   101   90  101 1   
   102  102  103 1   
   103  102  110 1   
   104  103  104 1   
   105  103  106 1   
   106  103  111 1   
   107  104  105 2   
   108  104  114 1   
   109  106  107 1   
   110  106  112 1   
   111  106  113 1   
   112  107  108 1   
   113  107  109 1   
   114  114  115 1   
   115  114  125 1   
   116  115  116 1   
   117  115  118 1   
   118  115  126 1   
   119  116  117 2   
   120  116  134 1   
   121  118  119 1   
   122  118  127 1   
   123  118  128 1   
   124  119  120 ar  
   125  119  121 ar  
   126  120  122 ar  
   127  120  129 1   
   128  121  123 ar  
   129  121  130 1   
   130  122  124 ar  
   131  122  131 1   
   132  123  124 ar  
   133  123  132 1   
   134  124  133 1   
   135  134  135 1   
   136  134  140 1   
   137  135  136 1   
   138  135  138 1   
   139  135  141 1   
   140  136  137 2   
   141  136  148 1   
   142  138  139 1   
   143  138  142 1   
   144  138  143 1   
   145  139  140 1   
   146  139  144 1   
   147  139  145 1   
   148  140  146 1   
   149  140  147 1   
   150  148  149 1   
   151  148  157 1   
   152  149  150 1   
   153  149  152 1   
   154  149  158 1   
   155  150  151 2   
   156  150  163 1   
   157  152  153 1   
   158  152  159 1   
   159  152  160 1   
   160  153  154 1   
   161  153  161 1   
   162  153  162 1   
   163  154  155 1   
   164  154  156 1   
   165  163  164 1   
   166  163  168 1   
   167  164  165 1   
   168  164  166 1   
   169  164  167 1   
@<TRIPOS>SUBSTRUCTURE
     1 MOL         1 TEMP              0 ****  ****    0 ROOT
