@<TRIPOS>MOLECULE
MOL
  189   185     1     0     0
SMALL
resp


@<TRIPOS>ATOM
      1 C1         -1.1460    3.2800    5.8180 c3        1 MOL     -0.201356
      2 C2         -1.2950    2.9070    4.3500 c         1 MOL      0.564046
      3 O1         -0.6940    3.5890    3.5290 o         1 MOL     -0.595431
      4 H1         -2.0420    3.8050    6.1510 hc        1 MOL      0.053639
      5 H2         -1.0140    2.3750    6.4120 hc        1 MOL      0.053639
      6 H3         -0.2780    3.9280    5.9430 hc        1 MOL      0.053639
      7 N1         -2.2550    2.0640    4.0040 n         1 MOL     -0.281844
      8 C3         -2.6620    1.7140    2.6830 c3        1 MOL     -0.118206
      9 C4         -3.4680    2.8600    2.0470 c         1 MOL      0.433692
     10 O2         -4.6790    2.9270    2.2200 o         1 MOL     -0.469703
     11 C5         -3.4520    0.4150    2.8070 c3        1 MOL     -0.457356
     12 C6         -4.0230   -0.1830    1.5340 c         1 MOL      1.025140
     13 O3         -4.7860   -1.1510    1.5800 o         1 MOL     -0.821226
     14 O4         -3.5970    0.3020    0.4040 o         1 MOL     -0.821226
     15 H4         -2.6280    1.5360    4.7830 hn        1 MOL      0.253796
     16 H5         -1.8030    1.5010    2.0530 h1        1 MOL      0.077954
     17 H6         -4.3320    0.6610    3.4000 hc        1 MOL      0.125754
     18 H7         -2.8820   -0.3640    3.3080 hc        1 MOL      0.125754
     19 N2         -2.7570    3.6880    1.2810 n         1 MOL     -0.232277
     20 C7         -3.1980    4.9690    0.8220 c3        1 MOL      0.076860
     21 C8         -4.1190    4.7890   -0.4310 c         1 MOL      0.328186
     22 O5         -5.0960    5.5410   -0.6550 o         1 MOL     -0.560818
     23 C9         -1.9110    5.7550    0.6410 c3        1 MOL     -0.029338
     24 C10        -2.1740    7.1780    0.1650 c3        1 MOL      0.011280
     25 C11        -1.0490    8.1650    0.4500 c3        1 MOL      0.120026
     26 C12         0.2430    7.6020   -0.1110 c3        1 MOL      0.068798
     27 N3          1.2390    8.6990   -0.0710 n4        1 MOL     -0.502603
     28 H8         -1.7780    3.4840    1.2120 hn        1 MOL      0.256157
     29 H9         -3.9090    5.3780    1.5400 h1        1 MOL      0.085167
     30 H10        -1.2960    5.2720   -0.1180 hc        1 MOL      0.011272
     31 H11        -1.3590    5.8460    1.5740 hc        1 MOL      0.011272
     32 H12        -3.1020    7.5510    0.6020 hc        1 MOL      0.008234
     33 H13        -2.2830    7.2230   -0.9100 hc        1 MOL      0.008234
     34 H14        -0.8720    8.3680    1.5070 hc        1 MOL     -0.016147
     35 H15        -1.2610    9.1280   -0.0290 hc        1 MOL     -0.016147
     36 H16         0.0810    7.2380   -1.1220 hx        1 MOL      0.079547
     37 H17         0.5350    6.8280    0.6020 hx        1 MOL      0.079547
     38 H18         1.0200    9.3760   -0.7890 hn        1 MOL      0.362328
     39 H19         1.1430    9.0740    0.8640 hn        1 MOL      0.362328
     40 H20         2.1620    8.3020   -0.2220 hn        1 MOL      0.362328
     41 N4         -3.9030    3.8020   -1.2670 n         1 MOL     -0.114837
     42 C13        -4.6890    3.4860   -2.4580 c3        1 MOL     -0.050238
     43 C14        -5.8300    2.4910   -2.1080 c         1 MOL      0.335830
     44 O6         -6.6230    2.0130   -2.9800 o         1 MOL     -0.466590
     45 C15        -3.8860    3.1460   -3.7170 c3        1 MOL     -0.266560
     46 C16        -2.9100    2.0020   -3.6790 c         1 MOL      0.793753
     47 O7         -2.8020    1.3870   -2.6080 o         1 MOL     -0.726595
     48 O8         -2.0730    1.8220   -4.5940 o         1 MOL     -0.726595
     49 H21        -3.0570    3.2930   -1.0680 hn        1 MOL      0.173880
     50 H22        -5.1570    4.4270   -2.7490 h1        1 MOL      0.125807
     51 H23        -3.2900    4.0260   -3.9640 hc        1 MOL      0.071553
     52 H24        -4.5740    2.9640   -4.5470 hc        1 MOL      0.071553
     53 N5         -6.0100    2.1430   -0.7740 n         1 MOL     -0.069858
     54 C17        -7.2740    1.5690   -0.1940 c3        1 MOL     -0.136128
     55 C18        -7.7130    0.2260   -0.7430 c         1 MOL      0.397890
     56 O9         -8.9290   -0.0040   -0.8830 o         1 MOL     -0.523811
     57 H25        -5.3800    2.4130   -0.0310 hn        1 MOL      0.101059
     58 H26        -8.0950    2.2790   -0.2330 h1        1 MOL      0.102119
     59 H27        -7.0370    1.4130    0.8620 h1        1 MOL      0.102119
     60 N6         -6.6470   -0.6140   -1.0120 n         1 MOL     -0.132450
     61 C19        -6.8300   -1.9050   -1.6910 c3        1 MOL     -0.009751
     62 C20        -6.8310   -3.1420   -0.7410 c         1 MOL      0.310229
     63 O10        -7.1820   -4.2380   -1.2420 o         1 MOL     -0.526554
     64 C21        -5.8240   -2.2060   -2.8600 c3        1 MOL     -0.059645
     65 C22        -4.3920   -1.7780   -2.6180 c         1 MOL      0.618576
     66 O11        -3.7790   -2.1450   -1.6110 o         1 MOL     -0.597822
     67 O12        -3.6970   -1.2250   -3.5550 o         1 MOL     -0.597822
     68 H28        -5.7200   -0.2680   -0.7980 hn        1 MOL      0.087545
     69 H29        -7.8040   -1.8880   -2.1690 h1        1 MOL      0.124148
     70 H30        -6.1920   -1.6140   -3.6950 hc        1 MOL      0.036969
     71 H31        -5.8460   -3.2430   -3.1870 hc        1 MOL      0.036969
     72 N7         -6.5100   -3.0600    0.5000 n         1 MOL     -0.249855
     73 C23        -6.3750   -4.2440    1.3750 c3        1 MOL     -0.076837
     74 C24        -4.9290   -4.7370    1.5290 c         1 MOL      0.628858
     75 O13        -4.8620   -5.8090    2.1370 o         1 MOL     -0.624186
     76 H32        -6.0660   -2.1950    0.7720 hn        1 MOL      0.280269
     77 H33        -6.9420   -5.0970    0.9860 h1        1 MOL      0.086673
     78 H34        -6.6990   -3.9000    2.3520 h1        1 MOL      0.086673
     79 N8         -3.8940   -4.1400    0.9750 n         1 MOL     -0.404079
     80 C25        -2.4970   -4.6140    0.8730 c3        1 MOL     -0.192030
     81 C26        -1.3930   -3.5540    0.9440 c         1 MOL      0.625601
     82 O14        -1.4220   -2.5180    0.2220 o         1 MOL     -0.732538
     83 C27        -2.3700   -5.2820   -0.5190 c3        1 MOL      0.344190
     84 C28        -2.8370   -6.7470   -0.3870 c3        1 MOL     -0.411843
     85 O15        -3.1790   -4.7560   -1.5230 oh        1 MOL     -0.563048
     86 H35        -4.0830   -3.3820    0.3430 hn        1 MOL      0.388154
     87 H36        -2.3000   -5.3860    1.6150 h1        1 MOL      0.131835
     88 H37        -1.3120   -5.1370   -0.7510 h1        1 MOL     -0.017718
     89 H38        -3.0870   -3.8050   -1.6390 ho        1 MOL      0.355575
     90 H39        -2.6810   -7.2940   -1.3120 hc        1 MOL      0.115725
     91 H40        -2.2720   -7.2550    0.3940 hc        1 MOL      0.115725
     92 H41        -3.8760   -6.7360   -0.0600 hc        1 MOL      0.115725
     93 N9         -0.3670   -3.8980    1.7400 n         1 MOL     -0.521970
     94 C29         0.8190   -3.1200    1.9180 c3        1 MOL      0.205391
     95 C30         1.8000   -3.6300    0.9260 c         1 MOL      0.461743
     96 O16         2.1130   -4.8110    0.9170 o         1 MOL     -0.597083
     97 C31         1.3610   -3.1790    3.4090 c3        1 MOL      0.140608
     98 C32         0.5650   -2.4270    4.4330 c3        1 MOL     -0.137484
     99 C33         2.8300   -2.6860    3.4330 c3        1 MOL     -0.208755
    100 C34         0.2540   -0.9130    4.3610 c3        1 MOL     -0.221612
    101 H42        -0.4010   -4.7520    2.2770 hn        1 MOL      0.291530
    102 H43         0.5610   -2.0730    1.7380 h1        1 MOL      0.126728
    103 H44         1.4220   -4.2190    3.7290 hc        1 MOL     -0.013442
    104 H45         1.1500   -2.5970    5.3350 hc        1 MOL      0.045984
    105 H46        -0.3300   -3.0370    4.5120 hc        1 MOL      0.045984
    106 H47         2.9680   -1.6340    3.2080 hc        1 MOL      0.028233
    107 H48         3.2590   -2.7950    4.4290 hc        1 MOL      0.028233
    108 H49         3.4830   -3.2470    2.7680 hc        1 MOL      0.028233
    109 H50        -0.0660   -0.6300    3.3630 hc        1 MOL      0.073927
    110 H51        -0.6010   -0.6910    5.0010 hc        1 MOL      0.073927
    111 H52         1.1620   -0.4170    4.6970 hc        1 MOL      0.073927
    112 N10         2.4500   -2.7310    0.2530 n         1 MOL     -0.007264
    113 C35         3.5520   -2.9560   -0.7570 c3        1 MOL     -0.193352
    114 C36         4.8560   -2.4180   -0.2010 c         1 MOL      0.484382
    115 O17         4.8110   -1.5250    0.6710 o         1 MOL     -0.299758
    116 C37         3.2300   -2.3580   -2.1700 c3        1 MOL      0.451953
    117 C38         2.0310   -3.0880   -2.7760 c3        1 MOL     -0.559750
    118 O18         2.9100   -1.0250   -2.0090 oh        1 MOL     -0.665959
    119 H53         2.1690   -1.7770    0.4090 hn        1 MOL      0.039380
    120 H54         3.6530   -4.0270   -0.9220 h1        1 MOL      0.102466
    121 H55         4.1150   -2.4740   -2.8000 h1        1 MOL     -0.020170
    122 H56         2.1320   -0.9510   -1.4350 ho        1 MOL      0.419833
    123 H57         1.9860   -3.0310   -3.8630 hc        1 MOL      0.151158
    124 H58         2.0890   -4.1500   -2.5120 hc        1 MOL      0.151158
    125 H59         1.2030   -2.5440   -2.3190 hc        1 MOL      0.151158
    126 N11         6.0040   -2.7890   -0.8460 n         1 MOL     -0.542209
    127 C39         7.3650   -2.3880   -0.4970 c3        1 MOL      0.198396
    128 C40         7.4920   -0.9700    0.0190 c         1 MOL      0.077719
    129 O19         8.1580   -0.8300    1.0340 o         1 MOL     -0.482987
    130 C41         8.3500   -2.5730   -1.6760 c3        1 MOL      0.409243
    131 C42         9.7890   -2.4980   -1.2300 c3        1 MOL     -0.535967
    132 O20         8.1010   -3.7350   -2.3590 oh        1 MOL     -0.567911
    133 H60         5.8670   -3.3330   -1.6900 hn        1 MOL      0.251922
    134 H61         7.8100   -3.1030    0.1960 h1        1 MOL      0.082959
    135 H62         8.1850   -1.7110   -2.3220 h1        1 MOL     -0.099036
    136 H63         7.5150   -3.5490   -3.0980 ho        1 MOL      0.381134
    137 H64        10.0410   -1.5400   -0.7670 hc        1 MOL      0.154421
    138 H65         9.9480   -3.3320   -0.5480 hc        1 MOL      0.154421
    139 H66        10.4880   -2.7470   -2.0390 hc        1 MOL      0.154421
    140 N12         6.9450    0.0840   -0.6000 n         1 MOL      0.178651
    141 C43         7.1360    1.5070   -0.1530 c3        1 MOL      0.113333
    142 C44         6.1530    1.8550    0.9170 c         1 MOL      0.386224
    143 O21         6.6090    2.3460    1.9040 o         1 MOL     -0.495728
    144 C45         7.0590    2.4930   -1.3090 c3        1 MOL     -0.328847
    145 C46         7.9510    2.1580   -2.5160 c3        1 MOL      0.120785
    146 C47         9.4300    2.0030   -2.1820 c3        1 MOL     -0.015108
    147 C48        10.2510    1.5470   -3.3850 c3        1 MOL     -0.035598
    148 N13        10.4680    2.6050   -4.4030 n4        1 MOL     -0.183826
    149 H67         6.4220   -0.0840   -1.4460 hn        1 MOL      0.112110
    150 H68         8.1140    1.6420    0.2900 h1        1 MOL      0.025385
    151 H69         7.5040    3.4330   -0.9660 hc        1 MOL      0.098135
    152 H70         6.0300    2.5450   -1.6410 hc        1 MOL      0.098135
    153 H71         7.7650    2.8780   -3.3130 hc        1 MOL     -0.031264
    154 H72         7.6350    1.1520   -2.8200 hc        1 MOL     -0.031264
    155 H73         9.5280    1.1620   -1.4950 hc        1 MOL      0.051493
    156 H74         9.8500    2.9190   -1.7680 hc        1 MOL      0.051493
    157 H75         9.7110    0.7120   -3.8330 hx        1 MOL      0.081608
    158 H76        11.1870    1.1410   -2.9910 hx        1 MOL      0.081608
    159 H77        11.1520    2.3580   -5.1090 hn        1 MOL      0.238089
    160 H78         9.6760    2.8840   -4.9650 hn        1 MOL      0.238089
    161 H79        10.8240    3.4340   -3.9480 hn        1 MOL      0.238089
    162 N14         4.8930    1.4190    0.8570 n         1 MOL     -0.291922
    163 C49         3.8910    1.4540    1.8800 c3        1 MOL     -0.147035
    164 C50         4.3460    0.8620    3.2390 c         1 MOL      0.457147
    165 O22         4.0330    1.3770    4.3190 o         1 MOL     -0.534505
    166 C51         2.6740    0.6950    1.4120 c3        1 MOL      0.055042
    167 C52         2.0540    1.3620    0.1860 c3        1 MOL     -0.075440
    168 C53         0.7810    0.6680   -0.0760 c         1 MOL      0.803983
    169 O23         0.8610   -0.5420   -0.4230 o         1 MOL     -0.762236
    170 O24        -0.2500    1.3490   -0.2840 o         1 MOL     -0.762236
    171 H80         4.6950    0.8910    0.0210 hn        1 MOL      0.200954
    172 H81         3.6520    2.4950    2.1210 h1        1 MOL      0.126980
    173 H82         1.9230    0.7880    2.1920 hc        1 MOL      0.001298
    174 H83         2.8960   -0.3660    1.3660 hc        1 MOL      0.001298
    175 H84         2.6830    1.3120   -0.6990 hc        1 MOL     -0.015933
    176 H85         1.8730    2.4150    0.4080 hc        1 MOL     -0.015933
    177 N15         5.2990   -0.1110    3.1530 n         1 MOL     -0.010017
    178 C54         5.9380   -0.7130    4.3420 c3        1 MOL     -0.520367
    179 H86         6.7280   -1.3930    4.0240 h1        1 MOL      0.174801
    180 H87         6.3650    0.0750    4.9630 h1        1 MOL      0.174801
    181 H88         5.1940   -1.2650    4.9150 h1        1 MOL      0.174801
    182 H89         5.3320   -0.5410    2.2420 hn        1 MOL      0.144959
    183 Ca1        -1.8520   -0.5150   -1.3640 Ca        1 MOL      1.792135
    184 O25        -0.0110    0.8770   -3.0370 oh        1 MOL     -0.837540
    185 H90        -0.4730    1.2400   -3.7950 ho        1 MOL      0.395626
    186 H91         0.5350    1.5930   -2.7110 ho        1 MOL      0.395626
    187 O26        -1.1280   -2.1540   -3.5750 oh        1 MOL     -0.837540
    188 H92        -0.3030   -2.4430   -3.9620 ho        1 MOL      0.395626
    189 H93        -1.7610   -2.1970   -4.2900 ho        1 MOL      0.395626
@<TRIPOS>BOND
     1    1    2 1   
     2    1    4 1   
     3    1    5 1   
     4    1    6 1   
     5    2    3 2   
     6    2    7 1   
     7    7    8 1   
     8    7   15 1   
     9    8    9 1   
    10    8   11 1   
    11    8   16 1   
    12    9   10 2   
    13    9   19 1   
    14   11   12 1   
    15   11   17 1   
    16   11   18 1   
    17   12   13 1   
    18   12   14 1   
    19   19   20 1   
    20   19   28 1   
    21   20   21 1   
    22   20   23 1   
    23   20   29 1   
    24   21   22 2   
    25   21   41 1   
    26   23   24 1   
    27   23   30 1   
    28   23   31 1   
    29   24   25 1   
    30   24   32 1   
    31   24   33 1   
    32   25   26 1   
    33   25   34 1   
    34   25   35 1   
    35   26   27 1   
    36   26   36 1   
    37   26   37 1   
    38   27   38 1   
    39   27   39 1   
    40   27   40 1   
    41   41   42 1   
    42   41   49 1   
    43   42   43 1   
    44   42   45 1   
    45   42   50 1   
    46   43   44 2   
    47   43   53 1   
    48   45   46 1   
    49   45   51 1   
    50   45   52 1   
    51   46   47 1   
    52   46   48 1   
    53   53   54 1   
    54   53   57 1   
    55   54   55 1   
    56   54   58 1   
    57   54   59 1   
    58   55   56 2   
    59   55   60 1   
    60   60   61 1   
    61   60   68 1   
    62   61   62 1   
    63   61   64 1   
    64   61   69 1   
    65   62   63 2   
    66   62   72 1   
    67   64   65 1   
    68   64   70 1   
    69   64   71 1   
    70   65   66 1   
    71   65   67 1   
    72   72   73 1   
    73   72   76 1   
    74   73   74 1   
    75   73   77 1   
    76   73   78 1   
    77   74   75 2   
    78   74   79 1   
    79   79   80 1   
    80   79   86 1   
    81   80   81 1   
    82   80   83 1   
    83   80   87 1   
    84   81   82 2   
    85   81   93 1   
    86   83   84 1   
    87   83   85 1   
    88   83   88 1   
    89   84   90 1   
    90   84   91 1   
    91   84   92 1   
    92   85   89 1   
    93   93   94 1   
    94   93  101 1   
    95   94   95 1   
    96   94   97 1   
    97   94  102 1   
    98   95   96 2   
    99   95  112 1   
   100   97   98 1   
   101   97   99 1   
   102   97  103 1   
   103   98  100 1   
   104   98  104 1   
   105   98  105 1   
   106   99  106 1   
   107   99  107 1   
   108   99  108 1   
   109  100  109 1   
   110  100  110 1   
   111  100  111 1   
   112  112  113 1   
   113  112  119 1   
   114  113  114 1   
   115  113  116 1   
   116  113  120 1   
   117  114  115 2   
   118  114  126 1   
   119  116  117 1   
   120  116  118 1   
   121  116  121 1   
   122  117  123 1   
   123  117  124 1   
   124  117  125 1   
   125  118  122 1   
   126  126  127 1   
   127  126  133 1   
   128  127  128 1   
   129  127  130 1   
   130  127  134 1   
   131  128  129 2   
   132  128  140 1   
   133  130  131 1   
   134  130  132 1   
   135  130  135 1   
   136  131  137 1   
   137  131  138 1   
   138  131  139 1   
   139  132  136 1   
   140  140  141 1   
   141  140  149 1   
   142  141  142 1   
   143  141  144 1   
   144  141  150 1   
   145  142  143 2   
   146  142  162 1   
   147  144  145 1   
   148  144  151 1   
   149  144  152 1   
   150  145  146 1   
   151  145  153 1   
   152  145  154 1   
   153  146  147 1   
   154  146  155 1   
   155  146  156 1   
   156  147  148 1   
   157  147  157 1   
   158  147  158 1   
   159  148  159 1   
   160  148  160 1   
   161  148  161 1   
   162  162  163 1   
   163  162  171 1   
   164  163  164 1   
   165  163  166 1   
   166  163  172 1   
   167  164  165 2   
   168  164  177 1   
   169  166  167 1   
   170  166  173 1   
   171  166  174 1   
   172  167  168 1   
   173  167  175 1   
   174  167  176 1   
   175  168  169 1   
   176  168  170 1   
   177  177  178 1   
   178  177  182 1   
   179  178  179 1   
   180  178  180 1   
   181  178  181 1   
   182  184  185 1   
   183  184  186 1   
   184  187  188 1   
   185  187  189 1   
@<TRIPOS>SUBSTRUCTURE
     1 MOL         1 TEMP              0 ****  ****    0 ROOT
