@<TRIPOS>MOLECULE
MOL
  189   185     1     0     0
SMALL
resp


@<TRIPOS>ATOM
      1 C1         -0.3080    3.3140   -4.7760 c3        1 MOL     -0.350815
      2 C2          0.3380    2.8440   -3.4660 c         1 MOL      0.601108
      3 O1         -0.2990    3.0610   -2.4240 o         1 MOL     -0.489440
      4 H1         -0.1200    2.5780   -5.5580 hc        1 MOL      0.093366
      5 H2         -1.3820    3.4250   -4.6330 hc        1 MOL      0.093366
      6 H3          0.1200    4.2720   -5.0700 hc        1 MOL      0.093366
      7 N1          1.6070    2.4520   -3.4470 n         1 MOL     -0.599639
      8 C3          2.3090    2.0210   -2.2200 c3        1 MOL      0.296338
      9 C4          2.9460    3.1870   -1.4750 c         1 MOL      0.457225
     10 O2          4.1370    3.4760   -1.6830 o         1 MOL     -0.502305
     11 C5          3.3610    0.9090   -2.5860 c3        1 MOL     -0.397016
     12 C6          4.0400    0.2710   -1.3330 c         1 MOL      0.721290
     13 O3          5.0920   -0.4340   -1.4880 o         1 MOL     -0.636665
     14 O4          3.6150    0.5270   -0.1710 o         1 MOL     -0.636665
     15 H4          2.0960    2.2060   -4.2970 hn        1 MOL      0.337100
     16 H5          1.5360    1.6920   -1.5320 h1        1 MOL      0.017246
     17 H6          4.1030    1.3720   -3.2410 hc        1 MOL      0.101651
     18 H7          2.8450    0.0660   -3.0610 hc        1 MOL      0.101651
     19 N2          2.1700    3.9810   -0.6720 n         1 MOL     -0.404134
     20 C7          2.6200    5.3100   -0.1880 c3        1 MOL     -0.037112
     21 C8          3.5480    5.1720    1.0080 c         1 MOL      0.521484
     22 O5          3.9380    6.1450    1.6630 o         1 MOL     -0.552896
     23 C9          1.3790    6.1690    0.1010 c3        1 MOL      0.006432
     24 C10         0.4690    6.4980   -1.0960 c3        1 MOL      0.227808
     25 C11        -0.8470    7.2100   -0.7080 c3        1 MOL     -0.178773
     26 C12        -1.8220    7.2280   -1.8670 c3        1 MOL      0.127322
     27 N3         -1.3970    8.1330   -3.0050 n4        1 MOL     -0.373403
     28 H8          1.1680    3.8330   -0.6100 hn        1 MOL      0.316691
     29 H9          3.1840    5.7840   -0.9920 h1        1 MOL      0.086310
     30 H10         1.8090    7.0500    0.5870 hc        1 MOL      0.008764
     31 H11         0.7080    5.7140    0.8340 hc        1 MOL      0.008764
     32 H12         0.2800    5.5350   -1.5590 hc        1 MOL     -0.074048
     33 H13         1.0710    7.1300   -1.7470 hc        1 MOL     -0.074048
     34 H14        -0.6390    8.2170   -0.3410 hc        1 MOL      0.072400
     35 H15        -1.2630    6.6170    0.1060 hc        1 MOL      0.072400
     36 H16        -2.7410    7.6560   -1.4560 hx        1 MOL      0.067134
     37 H17        -1.9960    6.2540   -2.3190 hx        1 MOL      0.067134
     38 H18        -0.8140    7.5850   -3.6160 hn        1 MOL      0.322816
     39 H19        -2.2120    8.3690   -3.5590 hn        1 MOL      0.322816
     40 H20        -1.0050    9.0050   -2.7070 hn        1 MOL      0.322816
     41 N4          4.0200    3.9420    1.3360 n         1 MOL     -0.305361
     42 C13         4.8410    3.7170    2.5000 c3        1 MOL      0.002346
     43 C14         5.9660    2.6770    2.2340 c         1 MOL      0.419508
     44 O6          6.7660    2.5620    3.1310 o         1 MOL     -0.508301
     45 C15         3.9770    3.3790    3.6860 c3        1 MOL     -0.110716
     46 C16         3.1020    2.1770    3.5580 c         1 MOL      0.794159
     47 O7          2.1400    2.0390    4.3470 o         1 MOL     -0.709093
     48 O8          3.3740    1.2080    2.7550 o         1 MOL     -0.709093
     49 H21         3.7580    3.2230    0.6840 hn        1 MOL      0.117428
     50 H22         5.4130    4.6260    2.7070 h1        1 MOL      0.100983
     51 H23         3.3780    4.2610    3.9410 hc        1 MOL      0.040397
     52 H24         4.6230    3.2590    4.5620 hc        1 MOL      0.040397
     53 N5          6.0140    2.0280    1.0840 n         1 MOL     -0.193877
     54 C17         7.2120    1.2750    0.5390 c3        1 MOL     -0.192303
     55 C18         7.4580   -0.0040    1.2550 c         1 MOL      0.554414
     56 O9          8.5680   -0.2760    1.7110 o         1 MOL     -0.609722
     57 H25         5.2520    2.1590    0.4320 hn        1 MOL      0.214217
     58 H26         8.0810    1.9250    0.5950 h1        1 MOL      0.105012
     59 H27         7.0580    1.1570   -0.5310 h1        1 MOL      0.105012
     60 N6          6.5180   -0.8980    1.2760 n         1 MOL     -0.157960
     61 C19         6.7570   -2.3110    1.8300 c3        1 MOL     -0.046754
     62 C20         6.8770   -3.3520    0.6770 c         1 MOL      0.416371
     63 O10         7.0110   -4.5290    0.8700 o         1 MOL     -0.504502
     64 C21         5.7360   -2.6180    2.8760 c3        1 MOL     -0.251770
     65 C22         4.3370   -2.4780    2.3500 c         1 MOL      0.818289
     66 O11         4.0440   -2.4460    1.1470 o         1 MOL     -0.767649
     67 O12         3.4210   -2.3600    3.1990 o         1 MOL     -0.767649
     68 H28         5.6000   -0.5650    0.9940 hn        1 MOL      0.087394
     69 H29         7.6960   -2.2910    2.3960 h1        1 MOL      0.143207
     70 H30         5.9930   -1.9950    3.7280 hc        1 MOL      0.090155
     71 H31         5.9490   -3.6420    3.1750 hc        1 MOL      0.090155
     72 N7          6.7860   -2.9470   -0.6030 n         1 MOL     -0.297105
     73 C23         6.6090   -3.7710   -1.7620 c3        1 MOL     -0.059746
     74 C24         5.2490   -4.3060   -2.0740 c         1 MOL      0.491493
     75 O13         5.1220   -5.2070   -2.9100 o         1 MOL     -0.581664
     76 H32         6.5790   -1.9760   -0.8250 hn        1 MOL      0.219089
     77 H33         7.4030   -4.5120   -1.7780 h1        1 MOL      0.083317
     78 H34         6.7990   -3.2020   -2.6730 h1        1 MOL      0.083317
     79 N8          4.1370   -3.8460   -1.4650 n         1 MOL     -0.128394
     80 C25         2.7030   -4.3850   -1.6050 c3        1 MOL     -0.358191
     81 C26         1.6410   -3.3000   -1.5260 c         1 MOL      0.699589
     82 O14         1.8880   -2.2800   -0.8630 o         1 MOL     -0.566229
     83 C27         2.4260   -5.5050   -0.5640 c3        1 MOL      0.581527
     84 C28         2.9850   -6.8960   -0.8490 c3        1 MOL     -0.439039
     85 O15         2.9210   -5.0320    0.6970 oh        1 MOL     -0.665779
     86 H35         4.2750   -3.0940   -0.8010 hn        1 MOL      0.129916
     87 H36         2.6970   -4.8860   -2.5730 h1        1 MOL      0.121474
     88 H37         1.3400   -5.6010   -0.5300 h1        1 MOL     -0.054834
     89 H38         3.4540   -4.2590    0.5310 ho        1 MOL      0.469395
     90 H39         4.0450   -6.9730   -0.6040 hc        1 MOL      0.109464
     91 H40         2.4100   -7.5530   -0.1870 hc        1 MOL      0.109464
     92 H41         2.7950   -7.1470   -1.8830 hc        1 MOL      0.109464
     93 N9          0.5100   -3.4310   -2.2530 n         1 MOL     -0.566942
     94 C29        -0.6480   -2.4800   -2.3070 c3        1 MOL      0.065145
     95 C30        -1.8990   -3.0970   -1.6590 c         1 MOL      0.532005
     96 O16        -2.4610   -4.0870   -2.1390 o         1 MOL     -0.547230
     97 C31        -0.9240   -2.1220   -3.8070 c3        1 MOL      0.091266
     98 C32         0.2710   -1.4090   -4.4290 c3        1 MOL      0.078552
     99 C33        -2.1140   -1.1610   -3.9780 c3        1 MOL     -0.093429
    100 C34         0.3040   -1.3420   -5.9930 c3        1 MOL     -0.355063
    101 H42         0.5230   -4.3050   -2.7820 hn        1 MOL      0.291836
    102 H43        -0.4240   -1.5390   -1.8060 h1        1 MOL      0.114389
    103 H44        -1.0700   -3.0270   -4.3900 hc        1 MOL      0.016315
    104 H45         1.1790   -1.8820   -4.0590 hc        1 MOL      0.006250
    105 H46         0.3140   -0.4130   -3.9910 hc        1 MOL      0.006250
    106 H47        -2.1790   -0.4800   -3.1340 hc        1 MOL      0.012371
    107 H48        -2.3300   -0.6340   -4.9100 hc        1 MOL      0.012371
    108 H49        -2.9310   -1.8770   -3.8440 hc        1 MOL      0.012371
    109 H50         0.1050   -2.3500   -6.3550 hc        1 MOL      0.086722
    110 H51        -0.5310   -0.8000   -6.4310 hc        1 MOL      0.086722
    111 H52         1.2700   -0.9330   -6.2960 hc        1 MOL      0.086722
    112 N10        -2.3280   -2.5800   -0.4690 n         1 MOL     -0.387459
    113 C35        -3.6360   -2.9730    0.1730 c3        1 MOL      0.102775
    114 C36        -4.8380   -2.3340   -0.5720 c         1 MOL      0.243901
    115 O17        -4.7420   -1.3320   -1.2880 o         1 MOL     -0.188827
    116 C37        -3.6580   -2.5050    1.6110 c3        1 MOL      0.059465
    117 C38        -2.3260   -2.7460    2.3600 c3        1 MOL     -0.267580
    118 O18        -4.1430   -1.1170    1.6670 oh        1 MOL     -0.386744
    119 H53        -1.9000   -1.7140   -0.1710 hn        1 MOL      0.255447
    120 H54        -3.8060   -4.0500    0.1680 h1        1 MOL      0.091962
    121 H55        -4.3150   -3.1830    2.1560 h1        1 MOL      0.024460
    122 H56        -3.7930   -0.7510    2.4830 ho        1 MOL      0.373166
    123 H57        -2.5590   -2.6300    3.4220 hc        1 MOL      0.093593
    124 H58        -1.8580   -3.6950    2.1140 hc        1 MOL      0.093593
    125 H59        -1.6470   -1.9380    2.1190 hc        1 MOL      0.093593
    126 N11        -6.0780   -2.8250   -0.2600 n         1 MOL     -0.292881
    127 C39        -7.2700   -2.1460   -0.7700 c3        1 MOL     -0.194675
    128 C40        -7.5230   -0.7340   -0.2320 c         1 MOL      0.400638
    129 O19        -8.2340   -0.0120   -0.9140 o         1 MOL     -0.478891
    130 C41        -8.5050   -3.0110   -0.4090 c3        1 MOL      0.544882
    131 C42        -9.6580   -2.8840   -1.3810 c3        1 MOL     -0.394205
    132 O20        -8.2560   -4.3690   -0.5560 oh        1 MOL     -0.619169
    133 H60        -6.1550   -3.5950    0.3860 hn        1 MOL      0.203721
    134 H61        -7.1210   -2.0840   -1.8420 h1        1 MOL      0.141835
    135 H62        -8.7840   -2.8080    0.6270 h1        1 MOL     -0.085241
    136 H63        -7.4350   -4.5910   -0.1220 ho        1 MOL      0.363628
    137 H64        -9.9260   -1.8280   -1.3630 hc        1 MOL      0.109502
    138 H65        -9.4440   -3.3220   -2.3510 hc        1 MOL      0.109502
    139 H66       -10.5270   -3.3640   -0.9420 hc        1 MOL      0.109502
    140 N12        -7.0870   -0.4110    0.9100 n         1 MOL     -0.259907
    141 C43        -7.0380    0.9570    1.4510 c3        1 MOL     -0.015479
    142 C44        -6.0990    1.8760    0.6470 c         1 MOL      0.418031
    143 O21        -6.5220    2.9110    0.1570 o         1 MOL     -0.494768
    144 C45        -6.6040    0.8080    2.9600 c3        1 MOL     -0.114367
    145 C46        -7.7760    0.4050    3.8540 c3        1 MOL      0.403104
    146 C47        -7.2250    0.3630    5.3240 c3        1 MOL      0.015112
    147 C48        -8.2780   -0.0400    6.3860 c3        1 MOL     -0.174612
    148 N13        -8.8230   -1.3080    5.9130 n4        1 MOL     -0.148067
    149 H67        -6.5660   -1.0770    1.4510 hn        1 MOL      0.203825
    150 H68        -8.0550    1.3150    1.2940 h1        1 MOL      0.100764
    151 H69        -6.1740    1.7590    3.2850 hc        1 MOL      0.010946
    152 H70        -5.8670    0.0170    3.1010 hc        1 MOL      0.010946
    153 H71        -7.9760   -0.6320    3.5820 hc        1 MOL     -0.120325
    154 H72        -8.6430    1.0440    3.7070 hc        1 MOL     -0.120325
    155 H73        -6.8860    1.3640    5.5940 hc        1 MOL      0.023309
    156 H74        -6.3630   -0.2880    5.4580 hc        1 MOL      0.023309
    157 H75        -9.0870    0.6890    6.4430 hx        1 MOL      0.139892
    158 H76        -7.6620   -0.0790    7.2840 hx        1 MOL      0.139892
    159 H77        -8.1860   -2.0820    5.8220 hn        1 MOL      0.241472
    160 H78        -9.4950   -1.5920    6.6160 hn        1 MOL      0.241472
    161 H79        -9.3800   -1.0820    5.1000 hn        1 MOL      0.241472
    162 N14        -4.8650    1.4390    0.3560 n         1 MOL     -0.129043
    163 C49        -3.9260    2.1330   -0.5950 c3        1 MOL     -0.320916
    164 C50        -4.5690    2.3010   -1.9370 c         1 MOL      0.618668
    165 O22        -4.5310    3.3870   -2.4930 o         1 MOL     -0.601683
    166 C51        -2.5310    1.4000   -0.5830 c3        1 MOL      0.311908
    167 C52        -1.5280    1.8130    0.4630 c3        1 MOL     -0.114820
    168 C53        -0.2680    0.9610    0.4820 c         1 MOL      0.702482
    169 O23        -0.2390   -0.2780    0.2320 o         1 MOL     -0.758807
    170 O24         0.8500    1.4660    0.9300 o         1 MOL     -0.758807
    171 H80        -4.6010    0.5570    0.7830 hn        1 MOL      0.041679
    172 H81        -3.7300    3.1580   -0.2630 h1        1 MOL      0.118999
    173 H82        -2.1010    1.5230   -1.5840 hc        1 MOL     -0.072813
    174 H83        -2.7510    0.3510   -0.3740 hc        1 MOL     -0.072813
    175 H84        -1.9190    1.7150    1.4810 hc        1 MOL      0.020307
    176 H85        -1.2200    2.8210    0.2210 hc        1 MOL      0.020307
    177 N15        -4.9940    1.2010   -2.5940 n         1 MOL     -0.108559
    178 C54        -5.7650    1.1910   -3.8370 c3        1 MOL     -0.181224
    179 H86        -5.3940    0.3980   -4.4870 h1        1 MOL      0.081201
    180 H87        -6.8170    1.0140   -3.6120 h1        1 MOL      0.081201
    181 H88        -5.6580    2.1520   -4.3400 h1        1 MOL      0.081201
    182 H89        -4.7720    0.3320   -2.1360 hn        1 MOL      0.044657
    183 Ca1         2.1540   -0.6880    1.4540 Ca        1 MOL      1.768244
    184 O25         0.8810   -0.2430    3.7630 oh        1 MOL     -0.844177
    185 H90         0.3160   -0.4270    4.5180 ho        1 MOL      0.394028
    186 H91         1.2900    0.5930    3.9730 ho        1 MOL      0.394028
    187 O26         0.9160   -3.1010    1.8120 oh        1 MOL     -0.844177
    188 H92         1.4030   -3.9190    1.6520 ho        1 MOL      0.394028
    189 H93         0.5510   -3.2120    2.6930 ho        1 MOL      0.394028
@<TRIPOS>BOND
     1    1    2 1   
     2    1    4 1   
     3    1    5 1   
     4    1    6 1   
     5    2    3 2   
     6    2    7 1   
     7    7    8 1   
     8    7   15 1   
     9    8    9 1   
    10    8   11 1   
    11    8   16 1   
    12    9   10 2   
    13    9   19 1   
    14   11   12 1   
    15   11   17 1   
    16   11   18 1   
    17   12   13 1   
    18   12   14 1   
    19   19   20 1   
    20   19   28 1   
    21   20   21 1   
    22   20   23 1   
    23   20   29 1   
    24   21   22 2   
    25   21   41 1   
    26   23   24 1   
    27   23   30 1   
    28   23   31 1   
    29   24   25 1   
    30   24   32 1   
    31   24   33 1   
    32   25   26 1   
    33   25   34 1   
    34   25   35 1   
    35   26   27 1   
    36   26   36 1   
    37   26   37 1   
    38   27   38 1   
    39   27   39 1   
    40   27   40 1   
    41   41   42 1   
    42   41   49 1   
    43   42   43 1   
    44   42   45 1   
    45   42   50 1   
    46   43   44 2   
    47   43   53 1   
    48   45   46 1   
    49   45   51 1   
    50   45   52 1   
    51   46   47 1   
    52   46   48 1   
    53   53   54 1   
    54   53   57 1   
    55   54   55 1   
    56   54   58 1   
    57   54   59 1   
    58   55   56 2   
    59   55   60 1   
    60   60   61 1   
    61   60   68 1   
    62   61   62 1   
    63   61   64 1   
    64   61   69 1   
    65   62   63 2   
    66   62   72 1   
    67   64   65 1   
    68   64   70 1   
    69   64   71 1   
    70   65   66 1   
    71   65   67 1   
    72   72   73 1   
    73   72   76 1   
    74   73   74 1   
    75   73   77 1   
    76   73   78 1   
    77   74   75 2   
    78   74   79 1   
    79   79   80 1   
    80   79   86 1   
    81   80   81 1   
    82   80   83 1   
    83   80   87 1   
    84   81   82 2   
    85   81   93 1   
    86   83   84 1   
    87   83   85 1   
    88   83   88 1   
    89   84   90 1   
    90   84   91 1   
    91   84   92 1   
    92   85   89 1   
    93   93   94 1   
    94   93  101 1   
    95   94   95 1   
    96   94   97 1   
    97   94  102 1   
    98   95   96 2   
    99   95  112 1   
   100   97   98 1   
   101   97   99 1   
   102   97  103 1   
   103   98  100 1   
   104   98  104 1   
   105   98  105 1   
   106   99  106 1   
   107   99  107 1   
   108   99  108 1   
   109  100  109 1   
   110  100  110 1   
   111  100  111 1   
   112  112  113 1   
   113  112  119 1   
   114  113  114 1   
   115  113  116 1   
   116  113  120 1   
   117  114  115 2   
   118  114  126 1   
   119  116  117 1   
   120  116  118 1   
   121  116  121 1   
   122  117  123 1   
   123  117  124 1   
   124  117  125 1   
   125  118  122 1   
   126  126  127 1   
   127  126  133 1   
   128  127  128 1   
   129  127  130 1   
   130  127  134 1   
   131  128  129 2   
   132  128  140 1   
   133  130  131 1   
   134  130  132 1   
   135  130  135 1   
   136  131  137 1   
   137  131  138 1   
   138  131  139 1   
   139  132  136 1   
   140  140  141 1   
   141  140  149 1   
   142  141  142 1   
   143  141  144 1   
   144  141  150 1   
   145  142  143 2   
   146  142  162 1   
   147  144  145 1   
   148  144  151 1   
   149  144  152 1   
   150  145  146 1   
   151  145  153 1   
   152  145  154 1   
   153  146  147 1   
   154  146  155 1   
   155  146  156 1   
   156  147  148 1   
   157  147  157 1   
   158  147  158 1   
   159  148  159 1   
   160  148  160 1   
   161  148  161 1   
   162  162  163 1   
   163  162  171 1   
   164  163  164 1   
   165  163  166 1   
   166  163  172 1   
   167  164  165 2   
   168  164  177 1   
   169  166  167 1   
   170  166  173 1   
   171  166  174 1   
   172  167  168 1   
   173  167  175 1   
   174  167  176 1   
   175  168  169 1   
   176  168  170 1   
   177  177  178 1   
   178  177  182 1   
   179  178  179 1   
   180  178  180 1   
   181  178  181 1   
   182  184  185 1   
   183  184  186 1   
   184  187  188 1   
   185  187  189 1   
@<TRIPOS>SUBSTRUCTURE
     1 MOL         1 TEMP              0 ****  ****    0 ROOT
