@<TRIPOS>MOLECULE
MOL
  179   176     1     0     0
SMALL
resp


@<TRIPOS>ATOM
      1 C1          2.9350    2.7880    4.2400 c3        1 MOL     -0.440761
      2 C2          2.0200    2.6190    2.9880 c         1 MOL      0.755256
      3 O1          2.5120    2.4900    1.8400 o         1 MOL     -0.571303
      4 H1          3.0900    3.8490    4.4370 hc        1 MOL      0.111913
      5 H2          2.4590    2.3240    5.1040 hc        1 MOL      0.111913
      6 H3          3.8970    2.3090    4.0550 hc        1 MOL      0.111913
      7 N1          0.6960    2.9130    3.0830 n         1 MOL     -0.747815
      8 C3         -0.2510    2.7100    1.9610 c3        1 MOL      0.318287
      9 C4         -0.6270    4.0530    1.2320 c         1 MOL      0.458586
     10 O2         -1.6900    4.5500    1.4120 o         1 MOL     -0.478621
     11 C5         -1.4950    2.0280    2.5610 c3        1 MOL      0.023528
     12 C6         -2.5620    1.6410    1.4930 c         1 MOL      0.586151
     13 O3         -3.7550    1.6970    1.8490 o         1 MOL     -0.691597
     14 O4         -2.2030    1.2660    0.3570 o         1 MOL     -0.691597
     15 H4          0.3560    2.8990    4.0330 hn        1 MOL      0.337216
     16 H5          0.1640    2.0070    1.2410 h1        1 MOL     -0.036368
     17 H6         -1.9360    2.6670    3.3160 hc        1 MOL     -0.012362
     18 H7         -1.1860    1.1200    3.0810 hc        1 MOL     -0.012362
     19 N2          0.2220    4.7310    0.4220 n         1 MOL     -0.376834
     20 C7          0.0400    6.1020    0.0040 c3        1 MOL      0.069641
     21 C8         -0.9860    6.3270   -1.1310 c         1 MOL      0.375384
     22 O5         -1.2130    7.4310   -1.5990 o         1 MOL     -0.570720
     23 C9          1.3400    6.9270   -0.1690 c3        1 MOL     -0.115333
     24 C10         2.0820    7.1950    1.1470 c3        1 MOL      0.146989
     25 C11         3.4990    7.8250    0.8400 c3        1 MOL     -0.037290
     26 C12         4.4740    7.8140    2.0030 c3        1 MOL     -0.153416
     27 N3          5.1970    6.5740    2.1320 n4        1 MOL     -0.204133
     28 H8          1.1700    4.3890    0.3520 hn        1 MOL      0.282620
     29 H9         -0.5040    6.5830    0.8150 h1        1 MOL      0.081816
     30 H10         1.0880    7.9320   -0.4870 hc        1 MOL      0.048479
     31 H11         1.9370    6.4750   -0.9680 hc        1 MOL      0.048479
     32 H12         2.2330    6.2280    1.6340 hc        1 MOL     -0.022575
     33 H13         1.4200    7.7810    1.7950 hc        1 MOL     -0.022575
     34 H14         3.3440    8.8350    0.4480 hc        1 MOL      0.054341
     35 H15         3.9720    7.3540   -0.0290 hc        1 MOL      0.054341
     36 H16         4.0020    8.1200    2.9330 hx        1 MOL      0.124963
     37 H17         5.1810    8.6060    1.7220 hx        1 MOL      0.124963
     38 H18         4.6780    5.7730    2.4560 hn        1 MOL      0.300541
     39 H19         5.6660    6.2940    1.2900 hn        1 MOL      0.300541
     40 H20         6.0250    6.6130    2.7100 hn        1 MOL      0.300541
     41 N4         -1.5600    5.2910   -1.6410 n         1 MOL     -0.135387
     42 C13        -2.7410    5.1840   -2.5320 c3        1 MOL      0.075694
     43 C14        -4.0730    4.6990   -1.8040 c         1 MOL      0.325094
     44 O6         -5.1770    4.8490   -2.3040 o         1 MOL     -0.509076
     45 C15        -2.4510    4.0570   -3.5980 c3        1 MOL     -0.313006
     46 C16        -1.9950    2.7450   -2.9710 c         1 MOL      0.866017
     47 O7         -0.9590    2.6760   -2.2690 o         1 MOL     -0.784190
     48 O8         -2.7040    1.7170   -3.1480 o         1 MOL     -0.784190
     49 H21        -1.1810    4.4200   -1.3130 hn        1 MOL      0.157393
     50 H22        -2.8350    6.0820   -3.1470 h1        1 MOL      0.110843
     51 H23        -1.5880    4.4030   -4.1710 hc        1 MOL      0.076465
     52 H24        -3.3350    3.9470   -4.2290 hc        1 MOL      0.076465
     53 N5         -4.0130    4.3760   -0.4980 n         1 MOL     -0.091664
     54 C17        -5.1170    4.0650    0.4330 c3        1 MOL     -0.198447
     55 C18        -5.8810    2.7830    0.1260 c         1 MOL      0.538090
     56 O9         -6.9980    2.6260    0.6470 o         1 MOL     -0.592657
     57 H25        -3.0810    4.3670   -0.1080 hn        1 MOL      0.081349
     58 H26        -5.8430    4.8740    0.4230 h1        1 MOL      0.122643
     59 H27        -4.6760    4.0400    1.4350 h1        1 MOL      0.122643
     60 N6         -5.4240    1.8300   -0.6900 n         1 MOL     -0.196872
     61 C19        -6.2100    0.7070   -1.1750 c3        1 MOL     -0.122151
     62 C20        -6.4840   -0.3520   -0.1390 c         1 MOL      0.302631
     63 O10        -7.1740   -1.3190   -0.4370 o         1 MOL     -0.442800
     64 C21        -5.6310    0.2070   -2.5080 c3        1 MOL     -0.121235
     65 C22        -4.4650   -0.7500   -2.2970 c         1 MOL      0.479738
     66 N7         -4.2910   -1.6850   -3.1910 n         1 MOL     -0.738604
     67 O11        -3.6790   -0.6940   -1.3210 o         1 MOL     -0.320166
     68 H28        -4.4980    1.9480   -1.0670 hn        1 MOL      0.209792
     69 H29        -7.1880    1.1340   -1.4150 h1        1 MOL      0.134955
     70 H30        -5.3650    1.0040   -3.1930 hc        1 MOL      0.073191
     71 H31        -6.3610   -0.4090   -3.0270 hc        1 MOL      0.073191
     72 H32        -5.0360   -1.7860   -3.8720 hn        1 MOL      0.358826
     73 H33        -3.5360   -2.3430   -3.1030 hn        1 MOL      0.358826
     74 N8         -5.8880   -0.2200    1.0750 n         1 MOL     -0.061874
     75 C23        -6.0490   -1.1660    2.2120 c3        1 MOL     -0.520758
     76 C24        -5.1050   -2.3060    2.2610 c         1 MOL      0.761026
     77 O12        -5.3750   -3.2610    3.0040 o         1 MOL     -0.585954
     78 H34        -5.2560    0.5550    1.2160 hn        1 MOL      0.292975
     79 H35        -7.0580   -1.6000    2.0900 h1        1 MOL      0.187181
     80 H36        -5.9870   -0.5490    3.1050 h1        1 MOL      0.187181
     81 N9         -4.0540   -2.3330    1.4340 n         1 MOL     -0.667956
     82 C25        -3.0820   -3.3440    1.3990 c3        1 MOL      0.441676
     83 C26        -1.6870   -2.6910    1.2390 c         1 MOL      0.509320
     84 O13        -1.4470   -1.8510    0.3030 o         1 MOL     -0.656446
     85 C27        -3.3850   -4.2990    0.2500 c3        1 MOL      0.051554
     86 C28        -4.7230   -4.9950    0.2170 ca        1 MOL     -0.074191
     87 C29        -5.8520   -4.3260   -0.4280 ca        1 MOL     -0.153441
     88 C30        -4.9460   -6.2560    0.8320 ca        1 MOL     -0.153441
     89 C31        -7.0770   -4.9530   -0.4100 ca        1 MOL     -0.168092
     90 C32        -6.2090   -6.8530    0.8090 ca        1 MOL     -0.168092
     91 C33        -7.2530   -6.2200    0.2110 ca        1 MOL      0.280369
     92 O14        -8.5250   -6.7890    0.0700 oh        1 MOL     -0.478243
     93 H37        -3.9860   -1.5750    0.7700 hn        1 MOL      0.325724
     94 H38        -3.0490   -3.8460    2.3620 h1        1 MOL     -0.040703
     95 H39        -2.7150   -5.1520    0.4030 hc        1 MOL     -0.020679
     96 H40        -3.2110   -3.8210   -0.7150 hc        1 MOL     -0.020679
     97 H41        -5.7030   -3.3990   -0.9760 ha        1 MOL      0.123644
     98 H42        -4.1830   -6.7710    1.4020 ha        1 MOL      0.123644
     99 H43        -7.8260   -4.6010   -1.1000 ha        1 MOL      0.111418
    100 H44        -6.2950   -7.8250    1.2620 ha        1 MOL      0.111418
    101 H45        -8.5750   -7.5990    0.5900 ho        1 MOL      0.341076
    102 N10        -0.7360   -3.1360    2.1070 n         1 MOL     -0.655511
    103 C34         0.7200   -2.7250    2.0380 c3        1 MOL      0.037901
    104 C35         1.4090   -3.8360    1.2170 c         1 MOL      0.482333
    105 O15         1.3880   -5.0490    1.5620 o         1 MOL     -0.559064
    106 C36         1.3810   -2.5560    3.4350 c3        1 MOL      0.201391
    107 C37         0.6940   -1.4580    4.3190 c3        1 MOL      0.242963
    108 C38         2.8820   -2.3260    3.2450 c3        1 MOL     -0.226884
    109 C39         1.2240   -1.3090    5.7380 c3        1 MOL     -0.340612
    110 H46        -1.0390   -3.7470    2.8470 hn        1 MOL      0.351845
    111 H47         0.7940   -1.7470    1.5640 h1        1 MOL      0.108556
    112 H48         1.2540   -3.5120    3.9560 hc        1 MOL     -0.027823
    113 H49        -0.3600   -1.6960    4.4690 hc        1 MOL     -0.036192
    114 H50         0.8940   -0.4930    3.8410 hc        1 MOL     -0.036192
    115 H51         3.3120   -2.1150    4.2230 hc        1 MOL      0.042420
    116 H52         3.3330   -3.1970    2.7610 hc        1 MOL      0.042420
    117 H53         2.9680   -1.5060    2.5300 hc        1 MOL      0.042420
    118 H54         0.8960   -2.1410    6.3710 hc        1 MOL      0.075649
    119 H55         2.2990   -1.4360    5.7430 hc        1 MOL      0.075649
    120 H56         0.8560   -0.3210    6.0180 hc        1 MOL      0.075649
    121 N11         2.1910   -3.4310    0.2400 n         1 MOL      0.066078
    122 C40         3.0340   -4.2990   -0.5330 c3        1 MOL     -0.177930
    123 C41         4.5580   -4.0070   -0.2380 c         1 MOL      0.516636
    124 O16         4.9470   -2.9900    0.3560 o         1 MOL     -0.456450
    125 C42         2.7070   -4.2020   -2.0400 c3        1 MOL      0.086195
    126 O17         2.8860   -2.8450   -2.4780 oh        1 MOL     -0.575830
    127 H57         2.2590   -2.4510    0.0350 hn        1 MOL     -0.073497
    128 H58         2.9000   -5.3320   -0.2130 h1        1 MOL      0.082992
    129 H59         1.7160   -4.5780   -2.3080 h1        1 MOL      0.050874
    130 H60         3.5160   -4.7210   -2.5680 h1        1 MOL      0.050874
    131 H61         2.2780   -2.2400   -2.0520 ho        1 MOL      0.356546
    132 N12         5.4660   -4.9120   -0.7260 n         1 MOL     -0.393691
    133 C43         6.8790   -4.9080   -0.4440 c3        1 MOL      0.074917
    134 C44         7.5120   -3.5590   -0.9070 c         1 MOL      0.547088
    135 O18         8.3730   -3.0520   -0.2480 o         1 MOL     -0.537169
    136 C45         7.4250   -6.2230   -1.0660 c3        1 MOL     -0.273280
    137 H62         5.0190   -5.6810   -1.2090 hn        1 MOL      0.261994
    138 H63         7.0310   -4.8940    0.6270 h1        1 MOL      0.077125
    139 H64         6.9460   -7.0640   -0.5680 hc        1 MOL      0.089403
    140 H65         7.2480   -6.2410   -2.1390 hc        1 MOL      0.089403
    141 H66         8.5010   -6.3200   -0.9500 hc        1 MOL      0.089403
    142 N13         7.1140   -3.0270   -2.0580 n         1 MOL     -0.484512
    143 C46         7.8130   -1.8400   -2.6340 c3        1 MOL      0.287858
    144 C47         7.4360   -0.4930   -2.0130 c         1 MOL      0.285810
    145 O19         8.2560    0.4220   -1.7440 o         1 MOL     -0.509393
    146 C48         7.5890   -1.8670   -4.1470 c3        1 MOL     -0.362770
    147 H67         6.4230   -3.5370   -2.6020 hn        1 MOL      0.300808
    148 H68         8.8960   -1.9500   -2.5450 h1        1 MOL      0.068169
    149 H69         8.0220   -0.9740   -4.5780 hc        1 MOL      0.097470
    150 H70         8.1160   -2.7370   -4.5380 hc        1 MOL      0.097470
    151 H71         6.5060   -1.9740   -4.2330 hc        1 MOL      0.097470
    152 N14         6.1610   -0.2630   -1.6380 n         1 MOL     -0.194045
    153 C49         5.7620    0.8480   -0.7630 c3        1 MOL     -0.010053
    154 C50         6.0730    0.6940    0.7370 c         1 MOL      0.520667
    155 O20         6.1930    1.7150    1.4300 o         1 MOL     -0.610187
    156 C51         4.2760    1.1540   -0.8630 c3        1 MOL     -0.129395
    157 C52         3.3420   -0.0260   -0.4990 c3        1 MOL      0.096297
    158 C53         1.9370    0.1480   -1.0060 c         1 MOL      0.654771
    159 O21         1.3270   -0.8610   -1.4130 o         1 MOL     -0.669384
    160 O22         1.2730    1.2230   -0.8970 o         1 MOL     -0.669384
    161 H72         5.4260   -0.8960   -1.9190 hn        1 MOL      0.189559
    162 H73         6.3310    1.7620   -0.9400 h1        1 MOL      0.107453
    163 H74         4.1260    1.3350   -1.9290 hc        1 MOL      0.022172
    164 H75         4.0490    2.0940   -0.3570 hc        1 MOL      0.022172
    165 H76         3.2900   -0.0870    0.5860 hc        1 MOL     -0.026886
    166 H77         3.6770   -0.9740   -0.9380 hc        1 MOL     -0.026886
    167 N15         6.2970   -0.5540    1.1520 n         1 MOL     -0.155999
    168 C54         7.0460   -0.7440    2.4460 c3        1 MOL     -0.199347
    169 H78         7.2560    0.2290    2.8910 h1        1 MOL      0.091992
    170 H79         6.4400   -1.3340    3.1350 h1        1 MOL      0.091992
    171 H80         7.9850   -1.2640    2.2510 h1        1 MOL      0.091992
    172 H81         6.2260   -1.3920    0.5890 hn        1 MOL      0.192557
    173 Ca1        -1.0930    0.0810   -1.5950 Ca        1 MOL      1.691944
    174 O23        -0.0000   -0.2960   -4.0010 oh        1 MOL     -0.842904
    175 H82         0.0150    0.3640   -4.6980 ho        1 MOL      0.415757
    176 H83         0.4980   -1.0320   -4.3440 ho        1 MOL      0.415757
    177 O24        -1.5590   -2.5600   -2.8030 oh        1 MOL     -0.842904
    178 H84        -1.3210   -3.4260   -2.4890 ho        1 MOL      0.415757
    179 H85        -1.1510   -2.4870   -3.6680 ho        1 MOL      0.415757
@<TRIPOS>BOND
     1    1    2 1   
     2    1    4 1   
     3    1    5 1   
     4    1    6 1   
     5    2    3 2   
     6    2    7 1   
     7    7    8 1   
     8    7   15 1   
     9    8    9 1   
    10    8   11 1   
    11    8   16 1   
    12    9   10 2   
    13    9   19 1   
    14   11   12 1   
    15   11   17 1   
    16   11   18 1   
    17   12   13 1   
    18   12   14 1   
    19   19   20 1   
    20   19   28 1   
    21   20   21 1   
    22   20   23 1   
    23   20   29 1   
    24   21   22 2   
    25   21   41 1   
    26   23   24 1   
    27   23   30 1   
    28   23   31 1   
    29   24   25 1   
    30   24   32 1   
    31   24   33 1   
    32   25   26 1   
    33   25   34 1   
    34   25   35 1   
    35   26   27 1   
    36   26   36 1   
    37   26   37 1   
    38   27   38 1   
    39   27   39 1   
    40   27   40 1   
    41   41   42 1   
    42   41   49 1   
    43   42   43 1   
    44   42   45 1   
    45   42   50 1   
    46   43   44 2   
    47   43   53 1   
    48   45   46 1   
    49   45   51 1   
    50   45   52 1   
    51   46   47 1   
    52   46   48 1   
    53   53   54 1   
    54   53   57 1   
    55   54   55 1   
    56   54   58 1   
    57   54   59 1   
    58   55   56 2   
    59   55   60 1   
    60   60   61 1   
    61   60   68 1   
    62   61   62 1   
    63   61   64 1   
    64   61   69 1   
    65   62   63 2   
    66   62   74 1   
    67   64   65 1   
    68   64   70 1   
    69   64   71 1   
    70   65   66 1   
    71   65   67 2   
    72   66   72 1   
    73   66   73 1   
    74   74   75 1   
    75   74   78 1   
    76   75   76 1   
    77   75   79 1   
    78   75   80 1   
    79   76   77 2   
    80   76   81 1   
    81   81   82 1   
    82   81   93 1   
    83   82   83 1   
    84   82   85 1   
    85   82   94 1   
    86   83   84 2   
    87   83  102 1   
    88   85   86 1   
    89   85   95 1   
    90   85   96 1   
    91   86   87 ar  
    92   86   88 ar  
    93   87   89 ar  
    94   87   97 1   
    95   88   90 ar  
    96   88   98 1   
    97   89   91 ar  
    98   89   99 1   
    99   90   91 ar  
   100   90  100 1   
   101   91   92 1   
   102   92  101 1   
   103  102  103 1   
   104  102  110 1   
   105  103  104 1   
   106  103  106 1   
   107  103  111 1   
   108  104  105 2   
   109  104  121 1   
   110  106  107 1   
   111  106  108 1   
   112  106  112 1   
   113  107  109 1   
   114  107  113 1   
   115  107  114 1   
   116  108  115 1   
   117  108  116 1   
   118  108  117 1   
   119  109  118 1   
   120  109  119 1   
   121  109  120 1   
   122  121  122 1   
   123  121  127 1   
   124  122  123 1   
   125  122  125 1   
   126  122  128 1   
   127  123  124 2   
   128  123  132 1   
   129  125  126 1   
   130  125  129 1   
   131  125  130 1   
   132  126  131 1   
   133  132  133 1   
   134  132  137 1   
   135  133  134 1   
   136  133  136 1   
   137  133  138 1   
   138  134  135 2   
   139  134  142 1   
   140  136  139 1   
   141  136  140 1   
   142  136  141 1   
   143  142  143 1   
   144  142  147 1   
   145  143  144 1   
   146  143  146 1   
   147  143  148 1   
   148  144  145 2   
   149  144  152 1   
   150  146  149 1   
   151  146  150 1   
   152  146  151 1   
   153  152  153 1   
   154  152  161 1   
   155  153  154 1   
   156  153  156 1   
   157  153  162 1   
   158  154  155 2   
   159  154  167 1   
   160  156  157 1   
   161  156  163 1   
   162  156  164 1   
   163  157  158 1   
   164  157  165 1   
   165  157  166 1   
   166  158  159 1   
   167  158  160 1   
   168  167  168 1   
   169  167  172 1   
   170  168  169 1   
   171  168  170 1   
   172  168  171 1   
   173  174  175 1   
   174  174  176 1   
   175  177  178 1   
   176  177  179 1   
@<TRIPOS>SUBSTRUCTURE
     1 MOL         1 TEMP              0 ****  ****    0 ROOT
