@<TRIPOS>MOLECULE
MOL
  172   171     1     0     0
SMALL
resp


@<TRIPOS>ATOM
      1 C1          0.4630    4.4500    5.5480 c3        1 MOL     -0.297765
      2 C2         -0.0320    4.2820    4.0630 c         1 MOL      0.631641
      3 O1          0.5730    4.7780    3.0870 o         1 MOL     -0.540733
      4 H1          0.4890    3.4750    6.0350 hc        1 MOL      0.080873
      5 H2          1.4640    4.8830    5.5510 hc        1 MOL      0.080873
      6 H3         -0.2190    5.1060    6.0880 hc        1 MOL      0.080873
      7 N1         -1.1780    3.6200    3.8010 n         1 MOL     -0.603220
      8 C3         -1.7470    3.3970    2.4400 c3        1 MOL      0.349919
      9 C4         -2.2510    4.6330    1.6800 c         1 MOL      0.526251
     10 O2         -2.5320    5.6890    2.2740 o         1 MOL     -0.570149
     11 C5         -2.7970    2.3300    2.7220 c3        1 MOL     -0.340102
     12 C6         -3.8270    2.2680    1.6330 c         1 MOL      0.553001
     13 O3         -4.9630    2.6850    1.8540 o         1 MOL     -0.601091
     14 O4         -3.5530    2.0240    0.4430 o         1 MOL     -0.601091
     15 H4         -1.7960    3.3870    4.5600 hn        1 MOL      0.301172
     16 H5         -0.9750    2.9850    1.7920 h1        1 MOL     -0.026905
     17 H6         -3.3170    2.7500    3.5870 hc        1 MOL      0.064069
     18 H7         -2.2680    1.3980    2.9150 hc        1 MOL      0.064069
     19 N2         -2.3560    4.5330    0.3390 n         1 MOL     -0.305437
     20 C7         -2.9940    5.6280   -0.3590 c3        1 MOL      0.123000
     21 C8         -3.9730    5.1250   -1.4980 c         1 MOL      0.517234
     22 O5         -4.2900    5.8160   -2.4380 o         1 MOL     -0.566148
     23 C9         -1.8480    6.4810   -0.9290 c3        1 MOL     -0.267893
     24 H8         -1.8660    3.7940   -0.1510 hn        1 MOL      0.206090
     25 H9         -3.5840    6.1870    0.3640 h1        1 MOL      0.051446
     26 H10        -1.0670    6.8090   -0.2360 hc        1 MOL      0.066408
     27 H11        -1.2710    5.9490   -1.6850 hc        1 MOL      0.066408
     28 H12        -2.2070    7.3580   -1.4690 hc        1 MOL      0.066408
     29 N3         -4.4670    3.8460   -1.4590 n         1 MOL     -0.474355
     30 C10        -5.2890    3.2070   -2.5230 c3        1 MOL      0.015227
     31 C11        -6.2160    2.0590   -2.0490 c         1 MOL      0.363360
     32 O6         -7.0230    1.5930   -2.8670 o         1 MOL     -0.553619
     33 C12        -4.2860    2.7230   -3.5860 c3        1 MOL      0.044780
     34 C13        -3.3210    1.6090   -3.3180 c         1 MOL      0.718894
     35 O7         -2.3620    1.4500   -4.0960 o         1 MOL     -0.698944
     36 O8         -3.5850    0.7970   -2.3730 o         1 MOL     -0.698944
     37 H13        -4.0780    3.3260   -0.6810 hn        1 MOL      0.300593
     38 H14        -5.8870    4.0190   -2.9230 h1        1 MOL      0.098120
     39 H15        -3.7400    3.5950   -3.9540 hc        1 MOL     -0.018504
     40 H16        -4.8850    2.4250   -4.4490 hc        1 MOL     -0.018504
     41 N4         -6.1690    1.6200   -0.7740 n         1 MOL      0.017377
     42 C14        -7.1600    0.7430   -0.1580 c3        1 MOL     -0.357547
     43 C15        -7.2360   -0.7260   -0.6020 c         1 MOL      0.543813
     44 O9         -8.1620   -1.4350   -0.3900 o         1 MOL     -0.581783
     45 H17        -5.4130    2.0110   -0.2300 hn        1 MOL      0.011043
     46 H18        -8.1170    1.2570   -0.2740 h1        1 MOL      0.135854
     47 H19        -6.8520    0.7660    0.8840 h1        1 MOL      0.135854
     48 N5         -6.1860   -1.1580   -1.3360 n         1 MOL     -0.099434
     49 C16        -6.1530   -2.3970   -1.9590 c3        1 MOL     -0.038934
     50 C17        -6.0720   -3.5640   -0.8540 c         1 MOL      0.474087
     51 O10        -6.3380   -4.7340   -1.1440 o         1 MOL     -0.573297
     52 C18        -5.0380   -2.4730   -2.9730 c3        1 MOL     -0.149745
     53 C19        -3.6360   -2.6250   -2.4460 c         1 MOL      0.462235
     54 N6         -2.7220   -3.0240   -3.2190 n         1 MOL     -0.636182
     55 O11        -3.3890   -2.3890   -1.2870 o         1 MOL     -0.321141
     56 H20        -5.3430   -0.6020   -1.3140 hn        1 MOL      0.075270
     57 H21        -7.0250   -2.5530   -2.5970 h1        1 MOL      0.088585
     58 H22        -4.9670   -1.5770   -3.5940 hc        1 MOL      0.054051
     59 H23        -5.2750   -3.3790   -3.5200 hc        1 MOL      0.054051
     60 H24        -2.7730   -3.0110   -4.2270 hn        1 MOL      0.339169
     61 H25        -1.8140   -3.1410   -2.7890 hn        1 MOL      0.339169
     62 N7         -5.7850   -3.2390    0.3670 n         1 MOL     -0.217039
     63 C20        -5.8420   -4.2400    1.4440 c3        1 MOL     -0.083572
     64 C21        -4.4810   -4.7110    1.8460 c         1 MOL      0.456317
     65 O12        -4.3260   -5.4920    2.7910 o         1 MOL     -0.567790
     66 H26        -5.4310   -2.3050    0.5110 hn        1 MOL      0.181048
     67 H27        -6.5280   -5.0730    1.2750 h1        1 MOL      0.086495
     68 H28        -6.2640   -3.7340    2.3080 h1        1 MOL      0.086495
     69 N8         -3.3940   -4.2230    1.1620 n         1 MOL     -0.156683
     70 C22        -2.0180   -4.4670    1.5840 c3        1 MOL     -0.149824
     71 C23        -1.2150   -3.1640    1.6320 c         1 MOL      0.426002
     72 O13        -1.5970   -2.1640    1.0440 o         1 MOL     -0.642488
     73 C24        -1.3850   -5.4050    0.5770 c3        1 MOL      0.575522
     74 C25        -1.8520   -6.8140    0.9870 c3        1 MOL     -0.617991
     75 O14        -1.5830   -5.1680   -0.7940 oh        1 MOL     -0.683439
     76 H29        -3.5050   -3.5490    0.4250 hn        1 MOL      0.124366
     77 H30        -1.8990   -4.9250    2.5750 h1        1 MOL      0.087254
     78 H31        -0.3260   -5.2870    0.8340 h1        1 MOL     -0.073788
     79 H32        -0.8970   -4.6690   -1.2520 ho        1 MOL      0.447577
     80 H33        -2.9260   -6.8190    0.8090 hc        1 MOL      0.155199
     81 H34        -1.3060   -7.4920    0.3310 hc        1 MOL      0.155199
     82 H35        -1.6720   -7.0950    2.0230 hc        1 MOL      0.155199
     83 N9         -0.1290   -3.1360    2.4070 n         1 MOL     -0.268359
     84 C26         0.9650   -2.1790    2.3970 c3        1 MOL      0.041769
     85 C27         1.8280   -2.6820    1.2080 c         1 MOL      0.357072
     86 O15         2.4350   -3.7870    1.3450 o         1 MOL     -0.578966
     87 C28         1.7720   -2.1460    3.7510 c3        1 MOL      0.061732
     88 C29         0.8330   -1.9360    4.9650 c3        1 MOL      0.055276
     89 C30         2.9790   -1.1710    3.8000 c3        1 MOL     -0.282393
     90 C31         1.4770   -2.3710    6.3400 c3        1 MOL     -0.110127
     91 H36         0.0100   -3.9980    2.9160 hn        1 MOL      0.233286
     92 H37         0.6190   -1.1660    2.1540 h1        1 MOL      0.052903
     93 H38         2.2430   -3.1250    3.7680 hc        1 MOL      0.025615
     94 H39        -0.0500   -2.5580    4.8040 hc        1 MOL     -0.016093
     95 H40         0.3880   -0.9440    5.0200 hc        1 MOL     -0.016093
     96 H41         3.4490   -1.1830    4.7850 hc        1 MOL      0.080522
     97 H42         3.6690   -1.5830    3.0600 hc        1 MOL      0.080522
     98 H43         2.6860   -0.1420    3.5780 hc        1 MOL      0.080522
     99 H44         2.2300   -1.6480    6.6530 hc        1 MOL      0.019103
    100 H45         0.7960   -2.5570    7.1680 hc        1 MOL      0.019103
    101 H46         2.0250   -3.2970    6.2000 hc        1 MOL      0.019103
    102 N10         1.9480   -1.8570    0.1920 n         1 MOL     -0.207979
    103 C32         2.7280   -2.0460   -1.0240 c3        1 MOL      0.289526
    104 C33         4.0750   -1.3210   -0.9490 c         1 MOL      0.437871
    105 O16         4.2070   -0.5240   -0.0210 o         1 MOL     -0.362365
    106 C34         1.8010   -1.5440   -2.2610 c3        1 MOL     -0.672650
    107 C35         0.2770   -1.9970   -2.1480 c         1 MOL      1.092773
    108 O17        -0.6160   -1.1370   -2.2350 o         1 MOL     -0.831890
    109 O18         0.0160   -3.1960   -2.0380 o         1 MOL     -0.831890
    110 H47         1.3840   -1.0240    0.3250 hn        1 MOL      0.239088
    111 H48         2.9490   -3.1140   -1.1170 h1        1 MOL      0.020019
    112 H49         2.1450   -2.1070   -3.1330 hc        1 MOL      0.158622
    113 H50         1.7320   -0.4610   -2.3140 hc        1 MOL      0.158622
    114 N11         5.0400   -1.7740   -1.6650 n         1 MOL     -0.585533
    115 C36         6.4300   -1.3610   -1.4680 c3        1 MOL      0.356735
    116 C37         6.5950    0.1990   -1.2500 c         1 MOL      0.265134
    117 O19         7.1150    0.6530   -0.1760 o         1 MOL     -0.512706
    118 C38         7.2480   -2.0100   -2.5040 c3        1 MOL     -0.236251
    119 C39         8.7270   -2.0400   -2.0720 ca        1 MOL     -0.018096
    120 C40         9.1420   -3.0150   -1.1350 ca        1 MOL     -0.063639
    121 C41         9.5910   -0.9940   -2.3980 ca        1 MOL     -0.063639
    122 C42        10.4750   -3.0470   -0.6820 ca        1 MOL     -0.200127
    123 C43        10.9570   -0.9920   -2.0160 ca        1 MOL     -0.200127
    124 C44        11.3690   -2.0300   -1.1700 ca        1 MOL     -0.023530
    125 H51         4.8170   -2.3720   -2.4520 hn        1 MOL      0.303322
    126 H52         6.6640   -1.7910   -0.5010 h1        1 MOL      0.065700
    127 H53         7.1670   -1.5670   -3.4980 hc        1 MOL      0.083969
    128 H54         6.9340   -3.0530   -2.5160 hc        1 MOL      0.083969
    129 H55         8.5540   -3.8950   -0.9360 ha        1 MOL      0.100000
    130 H56         9.1420   -0.1620   -2.9200 ha        1 MOL      0.100000
    131 H57        10.8920   -3.8550   -0.0980 ha        1 MOL      0.138044
    132 H58        11.5930   -0.1460   -2.2250 ha        1 MOL      0.138044
    133 H59        12.4240   -2.1110   -0.9200 ha        1 MOL      0.075127
    134 N12         6.1530    1.2020   -2.0590 n         1 MOL     -0.041298
    135 C45         5.9540    2.6850   -1.7810 c3        1 MOL     -0.003859
    136 C46         5.0160    3.1220   -0.6140 c         1 MOL      0.281024
    137 O20         4.9160    4.3300   -0.3020 o         1 MOL     -0.529968
    138 C47         5.2200    3.2170   -3.0350 c3        1 MOL      0.004573
    139 C48         5.6020    2.2540   -4.0820 c3        1 MOL     -0.015087
    140 C49         5.8000    0.9390   -3.4430 c3        1 MOL     -0.006284
    141 H60         6.9390    3.1420   -1.6490 h1        1 MOL      0.081766
    142 H61         4.1510    3.3590   -2.8690 hc        1 MOL      0.043025
    143 H62         5.5990    4.1970   -3.3160 hc        1 MOL      0.043025
    144 H63         4.8240    2.0910   -4.8370 hc        1 MOL      0.006887
    145 H64         6.5190    2.6240   -4.5450 hc        1 MOL      0.006887
    146 H65         4.8430    0.4090   -3.4950 h1        1 MOL      0.028469
    147 H66         6.5910    0.4590   -4.0090 h1        1 MOL      0.028469
    148 N13         4.3720    2.2040    0.0750 n         1 MOL     -0.004500
    149 C50         3.7550    2.5060    1.3830 c3        1 MOL     -0.124724
    150 C51         4.5150    1.9870    2.5360 c         1 MOL      0.471370
    151 O21         4.3400    2.3990    3.6400 o         1 MOL     -0.564811
    152 C52         2.3330    1.9660    1.3910 c3        1 MOL     -0.012273
    153 C53         1.4230    2.6280    0.3950 c3        1 MOL     -0.080309
    154 C54         0.2730    1.7750   -0.0660 c         1 MOL      0.688443
    155 O22        -0.7480    2.1670   -0.6500 o         1 MOL     -0.722844
    156 O23         0.2570    0.5420    0.1900 o         1 MOL     -0.722844
    157 H67         4.3850    1.2400   -0.2280 hn        1 MOL      0.059151
    158 H68         3.6860    3.5880    1.5030 h1        1 MOL      0.132844
    159 H69         1.9650    2.0220    2.4190 hc        1 MOL      0.036689
    160 H70         2.3500    0.9000    1.1540 hc        1 MOL      0.036689
    161 H71         2.0050    2.8680   -0.4940 hc        1 MOL      0.045786
    162 H72         1.1020    3.5720    0.8310 hc        1 MOL      0.045786
    163 N14         5.3200    0.9790    2.3050 n         1 MOL     -0.142443
    164 C55         6.3620    0.5930    3.3050 c3        1 MOL     -0.110237
    165 H73         5.9590   -0.1700    3.9720 h1        1 MOL      0.056411
    166 H74         7.2350    0.1960    2.7870 h1        1 MOL      0.056411
    167 H75         6.6500    1.4680    3.8870 h1        1 MOL      0.056411
    168 H76         5.2600    0.4990    1.4270 hn        1 MOL      0.126711
    169 Ca1        -2.2160   -0.0660   -0.5150 Ca        1 MOL      1.684084
    170 O24        -4.1890   -0.9640    1.1820 oh        1 MOL     -0.828321
    171 H77        -4.7100   -0.4940    1.8290 ho        1 MOL      0.417195
    172 H78        -3.7920   -1.6830    1.6710 ho        1 MOL      0.417195
@<TRIPOS>BOND
     1    1    2 1   
     2    1    4 1   
     3    1    5 1   
     4    1    6 1   
     5    2    3 2   
     6    2    7 1   
     7    7    8 1   
     8    7   15 1   
     9    8    9 1   
    10    8   11 1   
    11    8   16 1   
    12    9   10 2   
    13    9   19 1   
    14   11   12 1   
    15   11   17 1   
    16   11   18 1   
    17   12   13 1   
    18   12   14 1   
    19   19   20 1   
    20   19   24 1   
    21   20   21 1   
    22   20   23 1   
    23   20   25 1   
    24   21   22 2   
    25   21   29 1   
    26   23   26 1   
    27   23   27 1   
    28   23   28 1   
    29   29   30 1   
    30   29   37 1   
    31   30   31 1   
    32   30   33 1   
    33   30   38 1   
    34   31   32 2   
    35   31   41 1   
    36   33   34 1   
    37   33   39 1   
    38   33   40 1   
    39   34   35 1   
    40   34   36 1   
    41   41   42 1   
    42   41   45 1   
    43   42   43 1   
    44   42   46 1   
    45   42   47 1   
    46   43   44 2   
    47   43   48 1   
    48   48   49 1   
    49   48   56 1   
    50   49   50 1   
    51   49   52 1   
    52   49   57 1   
    53   50   51 2   
    54   50   62 1   
    55   52   53 1   
    56   52   58 1   
    57   52   59 1   
    58   53   54 1   
    59   53   55 2   
    60   54   60 1   
    61   54   61 1   
    62   62   63 1   
    63   62   66 1   
    64   63   64 1   
    65   63   67 1   
    66   63   68 1   
    67   64   65 2   
    68   64   69 1   
    69   69   70 1   
    70   69   76 1   
    71   70   71 1   
    72   70   73 1   
    73   70   77 1   
    74   71   72 2   
    75   71   83 1   
    76   73   74 1   
    77   73   75 1   
    78   73   78 1   
    79   74   80 1   
    80   74   81 1   
    81   74   82 1   
    82   75   79 1   
    83   83   84 1   
    84   83   91 1   
    85   84   85 1   
    86   84   87 1   
    87   84   92 1   
    88   85   86 2   
    89   85  102 1   
    90   87   88 1   
    91   87   89 1   
    92   87   93 1   
    93   88   90 1   
    94   88   94 1   
    95   88   95 1   
    96   89   96 1   
    97   89   97 1   
    98   89   98 1   
    99   90   99 1   
   100   90  100 1   
   101   90  101 1   
   102  102  103 1   
   103  102  110 1   
   104  103  104 1   
   105  103  106 1   
   106  103  111 1   
   107  104  105 2   
   108  104  114 1   
   109  106  107 1   
   110  106  112 1   
   111  106  113 1   
   112  107  108 1   
   113  107  109 1   
   114  114  115 1   
   115  114  125 1   
   116  115  116 1   
   117  115  118 1   
   118  115  126 1   
   119  116  117 2   
   120  116  134 1   
   121  118  119 1   
   122  118  127 1   
   123  118  128 1   
   124  119  120 ar  
   125  119  121 ar  
   126  120  122 ar  
   127  120  129 1   
   128  121  123 ar  
   129  121  130 1   
   130  122  124 ar  
   131  122  131 1   
   132  123  124 ar  
   133  123  132 1   
   134  124  133 1   
   135  134  135 1   
   136  134  140 1   
   137  135  136 1   
   138  135  138 1   
   139  135  141 1   
   140  136  137 2   
   141  136  148 1   
   142  138  139 1   
   143  138  142 1   
   144  138  143 1   
   145  139  140 1   
   146  139  144 1   
   147  139  145 1   
   148  140  146 1   
   149  140  147 1   
   150  148  149 1   
   151  148  157 1   
   152  149  150 1   
   153  149  152 1   
   154  149  158 1   
   155  150  151 2   
   156  150  163 1   
   157  152  153 1   
   158  152  159 1   
   159  152  160 1   
   160  153  154 1   
   161  153  161 1   
   162  153  162 1   
   163  154  155 1   
   164  154  156 1   
   165  163  164 1   
   166  163  168 1   
   167  164  165 1   
   168  164  166 1   
   169  164  167 1   
   170  170  171 1   
   171  170  172 1   
@<TRIPOS>SUBSTRUCTURE
     1 MOL         1 TEMP              0 ****  ****    0 ROOT
