@<TRIPOS>MOLECULE
MOL
  175   173     1     0     0
SMALL
resp


@<TRIPOS>ATOM
      1 C1          0.6950    3.4400    5.8900 c3        1 MOL     -0.394771
      2 C2          0.3420    3.6780    4.4010 c         1 MOL      0.728227
      3 O1          1.1910    3.8550    3.5780 o         1 MOL     -0.539914
      4 H1          0.0280    2.6850    6.3050 hc        1 MOL      0.093602
      5 H2          1.7260    3.0970    5.9690 hc        1 MOL      0.093602
      6 H3          0.5790    4.3710    6.4440 hc        1 MOL      0.093602
      7 N1         -0.9450    3.6250    4.1040 n         1 MOL     -0.612854
      8 C3         -1.5470    3.5320    2.7410 c3        1 MOL     -0.005020
      9 C4         -1.7300    4.8750    1.9170 c         1 MOL      0.624562
     10 O2         -2.0450    5.9520    2.3840 o         1 MOL     -0.554960
     11 C5         -2.9730    2.9170    2.9510 c3        1 MOL     -0.119148
     12 C6         -3.7490    2.8240    1.6110 c         1 MOL      0.597626
     13 O3         -4.6550    3.6730    1.4840 o         1 MOL     -0.618329
     14 O4         -3.4810    1.9190    0.8030 o         1 MOL     -0.618329
     15 H4         -1.6750    3.5560    4.8030 hn        1 MOL      0.314814
     16 H5         -0.8290    2.9360    2.1640 h1        1 MOL      0.145334
     17 H6         -3.4470    3.5930    3.6610 hc        1 MOL      0.010658
     18 H7         -2.9590    1.9340    3.4270 hc        1 MOL      0.010658
     19 N2         -1.7120    4.6790    0.5760 n         1 MOL     -0.638064
     20 C7         -1.8240    5.7230   -0.4810 c3        1 MOL      0.466422
     21 C8         -2.8590    5.2910   -1.5550 c         1 MOL      0.313560
     22 O5         -2.8940    5.9560   -2.5920 o         1 MOL     -0.537453
     23 C9         -0.4100    6.0330   -0.9220 c3        1 MOL     -0.268915
     24 H8         -1.7270    3.7140    0.2910 hn        1 MOL      0.369659
     25 H9         -2.1440    6.6660   -0.0320 h1        1 MOL     -0.008519
     26 H10         0.2550    6.2310   -0.0780 hc        1 MOL      0.056291
     27 H11        -0.0890    5.1980   -1.5420 hc        1 MOL      0.056291
     28 H12        -0.4580    6.9140   -1.5590 hc        1 MOL      0.056291
     29 N3         -3.6180    4.1400   -1.4160 n         1 MOL     -0.068160
     30 C10        -4.6530    3.7980   -2.4600 c3        1 MOL     -0.147862
     31 C11        -5.8700    2.9780   -2.0330 c         1 MOL      0.426501
     32 O6         -6.7890    2.8160   -2.8790 o         1 MOL     -0.536230
     33 C12        -3.9180    3.0710   -3.6320 c3        1 MOL      0.020875
     34 C13        -3.1810    1.7980   -3.1400 c         1 MOL      0.652156
     35 O7         -3.6880    1.0690   -2.2530 o         1 MOL     -0.669580
     36 O8         -2.1690    1.5220   -3.7530 o         1 MOL     -0.669580
     37 H13        -3.4670    3.4340   -0.7100 hn        1 MOL     -0.055478
     38 H14        -5.0910    4.7520   -2.7310 h1        1 MOL      0.104417
     39 H15        -3.1980    3.7100   -4.1420 hc        1 MOL      0.009412
     40 H16        -4.6300    2.8490   -4.4180 hc        1 MOL      0.009412
     41 N4         -5.8710    2.4220   -0.7640 n         1 MOL     -0.069033
     42 C14        -6.9970    1.7050   -0.2730 c3        1 MOL     -0.324955
     43 C15        -7.3260    0.1980   -0.7810 c         1 MOL      0.502482
     44 O9         -8.3950   -0.3540   -0.6860 o         1 MOL     -0.587784
     45 H17        -5.0060    2.4680   -0.2560 hn        1 MOL      0.133988
     46 H18        -7.8150    2.3880   -0.4760 h1        1 MOL      0.130694
     47 H19        -6.9050    1.5570    0.8080 h1        1 MOL      0.130694
     48 N5         -6.3170   -0.5560   -1.3480 n         1 MOL     -0.063108
     49 C16        -6.5430   -1.9210   -1.9450 c3        1 MOL     -0.163143
     50 C17        -6.4750   -3.1920   -0.9760 c         1 MOL      0.418822
     51 O10        -6.3890   -4.3270   -1.4550 o         1 MOL     -0.510576
     52 C18        -5.4820   -2.0970   -3.0560 c3        1 MOL     -0.074448
     53 C19        -4.0130   -2.1470   -2.5270 c         1 MOL      0.557052
     54 N6         -2.9770   -2.1350   -3.3030 n         1 MOL     -0.691562
     55 O11        -3.7110   -2.1600   -1.3470 o         1 MOL     -0.383385
     56 H20        -5.4020   -0.1520   -1.3980 hn        1 MOL      0.030448
     57 H21        -7.5830   -1.8720   -2.2750 h1        1 MOL      0.143285
     58 H22        -5.5550   -1.2280   -3.7070 hc        1 MOL      0.044843
     59 H23        -5.6580   -2.9570   -3.6960 hc        1 MOL      0.044843
     60 H24        -3.0980   -2.0280   -4.3060 hn        1 MOL      0.344716
     61 H25        -2.0430   -2.1530   -2.9200 hn        1 MOL      0.344716
     62 N7         -6.3800   -2.9510    0.2860 n         1 MOL     -0.206175
     63 C20        -6.3930   -4.0400    1.3070 c3        1 MOL     -0.276927
     64 C21        -5.0510   -4.6600    1.5850 c         1 MOL      0.563387
     65 O12        -4.8920   -5.6360    2.3530 o         1 MOL     -0.608120
     66 H26        -6.4290   -1.9710    0.5300 hn        1 MOL      0.227788
     67 H27        -7.0710   -4.7990    0.8920 h1        1 MOL      0.136324
     68 H28        -6.8130   -3.6270    2.2250 h1        1 MOL      0.136324
     69 N8         -3.9820   -4.0970    1.1010 n         1 MOL     -0.235974
     70 C22        -2.6060   -4.5600    1.2650 c3        1 MOL     -0.058704
     71 C23        -1.6430   -3.4420    1.3310 c         1 MOL      0.468429
     72 O13        -1.8490   -2.3970    0.6890 o         1 MOL     -0.580370
     73 C24        -2.1800   -5.5530    0.1940 c3        1 MOL      0.549721
     74 C25        -2.7590   -6.9350    0.3870 c3        1 MOL     -0.506989
     75 O14        -2.6030   -5.1490   -1.1220 oh        1 MOL     -0.624587
     76 H29        -4.1260   -3.2340    0.5910 hn        1 MOL      0.094989
     77 H30        -2.3760   -5.1320    2.1640 h1        1 MOL      0.071958
     78 H31        -1.1040   -5.6830    0.2410 h1        1 MOL     -0.048750
     79 H32        -2.7250   -4.1990   -1.1490 ho        1 MOL      0.349513
     80 H33        -3.8320   -6.9180    0.2250 hc        1 MOL      0.127758
     81 H34        -2.4290   -7.5970   -0.4130 hc        1 MOL      0.127758
     82 H35        -2.4940   -7.3140    1.3670 hc        1 MOL      0.127758
     83 N9         -0.4890   -3.6660    1.9840 n         1 MOL     -0.451868
     84 C26         0.6900   -2.7840    1.8970 c3        1 MOL     -0.077931
     85 C27         1.6020   -3.0950    0.7460 c         1 MOL      0.588784
     86 O15         2.2980   -4.1370    0.7290 o         1 MOL     -0.610927
     87 C28         1.5120   -2.8850    3.2280 c3        1 MOL      0.315787
     88 C29         0.6090   -2.7170    4.4720 c3        1 MOL      0.009671
     89 C30         2.5960   -1.7610    3.2700 c3        1 MOL     -0.091186
     90 C31         1.3750   -2.9240    5.7890 c3        1 MOL     -0.312702
     91 H36        -0.4220   -4.5800    2.3900 hn        1 MOL      0.272403
     92 H37         0.2510   -1.7870    1.7640 h1        1 MOL     -0.015370
     93 H38         1.9540   -3.8770    3.2880 hc        1 MOL     -0.040467
     94 H39        -0.2130   -3.4280    4.5300 hc        1 MOL     -0.001880
     95 H40         0.1790   -1.7280    4.4650 hc        1 MOL     -0.001880
     96 H41         3.2630   -2.0310    4.1000 hc        1 MOL     -0.000835
     97 H42         3.2190   -1.9080    2.3790 hc        1 MOL     -0.000835
     98 H43         2.1880   -0.7630    3.3260 hc        1 MOL     -0.000835
     99 H44         0.8220   -2.6070    6.6700 hc        1 MOL      0.072216
    100 H45         1.8580   -3.8930    5.8310 hc        1 MOL      0.072216
    101 H46         2.2140   -2.2320    5.8600 hc        1 MOL      0.072216
    102 N10         1.7260   -2.1630   -0.2250 n         1 MOL     -0.118377
    103 C32         2.5510   -2.1080   -1.3810 c3        1 MOL     -0.065080
    104 C33         3.9880   -1.5830   -1.0520 c         1 MOL      0.403434
    105 O16         4.1530   -0.7760   -0.1060 o         1 MOL     -0.298437
    106 C34         1.8550   -1.2100   -2.4200 c3        1 MOL     -0.161040
    107 C35         0.4100   -1.6320   -2.6590 c         1 MOL      0.659464
    108 O17        -0.5720   -1.3880   -1.9040 o         1 MOL     -0.670839
    109 O18         0.2150   -2.2380   -3.7510 o         1 MOL     -0.670839
    110 H47         1.2030   -1.3350    0.0270 hn        1 MOL      0.045383
    111 H48         2.6780   -3.1240   -1.7470 h1        1 MOL      0.082657
    112 H49         2.4050   -1.1540   -3.3550 hc        1 MOL      0.086834
    113 H50         1.7700   -0.1960   -2.0440 hc        1 MOL      0.086834
    114 N11         4.9770   -1.8850   -1.8690 n         1 MOL     -0.551283
    115 C36         6.3890   -1.4520   -1.5190 c3        1 MOL      0.263587
    116 C37         6.6310    0.0550   -1.1280 c         1 MOL      0.337192
    117 O19         7.1790    0.2740   -0.0700 o         1 MOL     -0.488904
    118 C38         7.3610   -2.0260   -2.4790 c3        1 MOL     -0.212912
    119 C39         8.8100   -1.8510   -2.0690 ca        1 MOL     -0.006105
    120 C40         9.5070   -0.6890   -2.4830 ca        1 MOL     -0.069802
    121 C41         9.4630   -2.7960   -1.2530 ca        1 MOL     -0.069802
    122 C42        10.8890   -0.6030   -2.3200 ca        1 MOL     -0.153892
    123 C43        10.8110   -2.6240   -1.0260 ca        1 MOL     -0.153892
    124 C44        11.5450   -1.5680   -1.5500 ca        1 MOL     -0.083486
    125 H51         4.8080   -2.3200   -2.7590 hn        1 MOL      0.318686
    126 H52         6.5490   -2.0130   -0.5960 h1        1 MOL      0.086867
    127 H53         7.2450   -1.5260   -3.4370 hc        1 MOL      0.072520
    128 H54         7.1780   -3.0840   -2.6780 hc        1 MOL      0.072520
    129 H55         8.9880    0.1130   -3.0020 ha        1 MOL      0.097215
    130 H56         8.8700   -3.6450   -0.9550 ha        1 MOL      0.097215
    131 H57        11.5180    0.2290   -2.5850 ha        1 MOL      0.109572
    132 H58        11.2280   -3.4300   -0.4330 ha        1 MOL      0.109572
    133 H59        12.5890   -1.4250   -1.3280 ha        1 MOL      0.101755
    134 N12         6.0720    1.0450   -1.8400 n         1 MOL     -0.045998
    135 C45         6.1760    2.4290   -1.3320 c3        1 MOL      0.025421
    136 C46         5.4740    2.6760   -0.0020 c         1 MOL      0.226746
    137 O20         5.5950    3.7360    0.6300 o         1 MOL     -0.505304
    138 C47         5.4830    3.2110   -2.4600 c3        1 MOL     -0.173972
    139 C48         5.6870    2.4050   -3.7460 c3        1 MOL     -0.007495
    140 C49         5.4720    1.0020   -3.1860 c3        1 MOL      0.122793
    141 H60         7.2340    2.6970   -1.2850 h1        1 MOL      0.074972
    142 H61         4.4130    3.1900   -2.2930 hc        1 MOL      0.095823
    143 H62         5.7820    4.2610   -2.4580 hc        1 MOL      0.095823
    144 H63         5.0310    2.6250   -4.5880 hc        1 MOL      0.009845
    145 H64         6.7460    2.4140   -3.9840 hc        1 MOL      0.009845
    146 H65         4.4110    0.7890   -3.1390 h1        1 MOL     -0.009783
    147 H66         5.9600    0.2690   -3.8260 h1        1 MOL     -0.009783
    148 N13         4.5220    1.8480    0.4290 n         1 MOL      0.015065
    149 C50         3.8480    1.8600    1.6850 c3        1 MOL     -0.051960
    150 C51         4.6610    1.1560    2.7660 c         1 MOL      0.402302
    151 O21         4.6950    1.5080    3.9200 o         1 MOL     -0.545748
    152 C52         2.4330    1.3590    1.5840 c3        1 MOL      0.053620
    153 C53         1.5760    2.0900    0.4910 c3        1 MOL     -0.075694
    154 C54         0.2250    1.3950    0.2220 c         1 MOL      0.470300
    155 O22        -0.6850    1.9250   -0.4290 o         1 MOL     -0.602857
    156 O23         0.0040    0.2370    0.7220 o         1 MOL     -0.602857
    157 H67         4.3840    0.9910   -0.0860 hn        1 MOL     -0.005247
    158 H68         3.6170    2.8650    2.0510 h1        1 MOL      0.099491
    159 H69         2.0420    1.6010    2.5710 hc        1 MOL      0.033182
    160 H70         2.3970    0.2960    1.3760 hc        1 MOL      0.033182
    161 H71         2.1240    2.1250   -0.4510 hc        1 MOL      0.030340
    162 H72         1.3790    3.0890    0.8700 hc        1 MOL      0.030340
    163 N14         5.5710    0.2210    2.3590 n         1 MOL     -0.012020
    164 C55         6.5260   -0.4390    3.3170 c3        1 MOL     -0.168790
    165 H73         7.0540    0.3260    3.8860 h1        1 MOL      0.065927
    166 H74         5.9710   -1.0810    4.0010 h1        1 MOL      0.065927
    167 H75         7.2460   -1.0380    2.7590 h1        1 MOL      0.065927
    168 H76         5.5190   -0.1260    1.4010 hn        1 MOL      0.040402
    169 Ca1        -2.3510   -0.1900   -0.3640 Ca        1 MOL      1.631976
    170 O24        -1.8630   -0.2080    2.6250 oh        1 MOL     -0.649964
    171 H77        -1.0640    0.2940    2.5210 ho        1 MOL      0.345122
    172 H78        -1.9990   -0.2440    3.5800 ho        1 MOL      0.345122
    173 O25        -4.3070   -0.7460    1.2980 oh        1 MOL     -0.649964
    174 H79        -3.6750   -0.5990    1.9980 ho        1 MOL      0.345122
    175 H80        -5.1550   -0.7270    1.7220 ho        1 MOL      0.345122
@<TRIPOS>BOND
     1    1    2 1   
     2    1    4 1   
     3    1    5 1   
     4    1    6 1   
     5    2    3 2   
     6    2    7 1   
     7    7    8 1   
     8    7   15 1   
     9    8    9 1   
    10    8   11 1   
    11    8   16 1   
    12    9   10 2   
    13    9   19 1   
    14   11   12 1   
    15   11   17 1   
    16   11   18 1   
    17   12   13 1   
    18   12   14 1   
    19   19   20 1   
    20   19   24 1   
    21   20   21 1   
    22   20   23 1   
    23   20   25 1   
    24   21   22 2   
    25   21   29 1   
    26   23   26 1   
    27   23   27 1   
    28   23   28 1   
    29   29   30 1   
    30   29   37 1   
    31   30   31 1   
    32   30   33 1   
    33   30   38 1   
    34   31   32 2   
    35   31   41 1   
    36   33   34 1   
    37   33   39 1   
    38   33   40 1   
    39   34   35 1   
    40   34   36 1   
    41   41   42 1   
    42   41   45 1   
    43   42   43 1   
    44   42   46 1   
    45   42   47 1   
    46   43   44 2   
    47   43   48 1   
    48   48   49 1   
    49   48   56 1   
    50   49   50 1   
    51   49   52 1   
    52   49   57 1   
    53   50   51 2   
    54   50   62 1   
    55   52   53 1   
    56   52   58 1   
    57   52   59 1   
    58   53   54 1   
    59   53   55 2   
    60   54   60 1   
    61   54   61 1   
    62   62   63 1   
    63   62   66 1   
    64   63   64 1   
    65   63   67 1   
    66   63   68 1   
    67   64   65 2   
    68   64   69 1   
    69   69   70 1   
    70   69   76 1   
    71   70   71 1   
    72   70   73 1   
    73   70   77 1   
    74   71   72 2   
    75   71   83 1   
    76   73   74 1   
    77   73   75 1   
    78   73   78 1   
    79   74   80 1   
    80   74   81 1   
    81   74   82 1   
    82   75   79 1   
    83   83   84 1   
    84   83   91 1   
    85   84   85 1   
    86   84   87 1   
    87   84   92 1   
    88   85   86 2   
    89   85  102 1   
    90   87   88 1   
    91   87   89 1   
    92   87   93 1   
    93   88   90 1   
    94   88   94 1   
    95   88   95 1   
    96   89   96 1   
    97   89   97 1   
    98   89   98 1   
    99   90   99 1   
   100   90  100 1   
   101   90  101 1   
   102  102  103 1   
   103  102  110 1   
   104  103  104 1   
   105  103  106 1   
   106  103  111 1   
   107  104  105 2   
   108  104  114 1   
   109  106  107 1   
   110  106  112 1   
   111  106  113 1   
   112  107  108 1   
   113  107  109 1   
   114  114  115 1   
   115  114  125 1   
   116  115  116 1   
   117  115  118 1   
   118  115  126 1   
   119  116  117 2   
   120  116  134 1   
   121  118  119 1   
   122  118  127 1   
   123  118  128 1   
   124  119  120 ar  
   125  119  121 ar  
   126  120  122 ar  
   127  120  129 1   
   128  121  123 ar  
   129  121  130 1   
   130  122  124 ar  
   131  122  131 1   
   132  123  124 ar  
   133  123  132 1   
   134  124  133 1   
   135  134  135 1   
   136  134  140 1   
   137  135  136 1   
   138  135  138 1   
   139  135  141 1   
   140  136  137 2   
   141  136  148 1   
   142  138  139 1   
   143  138  142 1   
   144  138  143 1   
   145  139  140 1   
   146  139  144 1   
   147  139  145 1   
   148  140  146 1   
   149  140  147 1   
   150  148  149 1   
   151  148  157 1   
   152  149  150 1   
   153  149  152 1   
   154  149  158 1   
   155  150  151 2   
   156  150  163 1   
   157  152  153 1   
   158  152  159 1   
   159  152  160 1   
   160  153  154 1   
   161  153  161 1   
   162  153  162 1   
   163  154  155 1   
   164  154  156 1   
   165  163  164 1   
   166  163  168 1   
   167  164  165 1   
   168  164  166 1   
   169  164  167 1   
   170  170  171 1   
   171  170  172 1   
   172  173  174 1   
   173  173  175 1   
@<TRIPOS>SUBSTRUCTURE
     1 MOL         1 TEMP              0 ****  ****    0 ROOT
