@<TRIPOS>MOLECULE
MOL
  175   173     1     0     0
SMALL
resp


@<TRIPOS>ATOM
      1 C1          0.4230    3.1590    5.6080 c3        1 MOL     -0.309367
      2 C2         -0.2330    3.4060    4.2190 c         1 MOL      0.676070
      3 O1          0.5070    3.8080    3.3030 o         1 MOL     -0.546039
      4 H1          0.2640    4.0300    6.2440 hc        1 MOL      0.070088
      5 H2         -0.0290    2.2820    6.0720 hc        1 MOL      0.070088
      6 H3          1.4920    2.9920    5.4800 hc        1 MOL      0.070088
      7 N1         -1.5220    3.1980    4.1150 n         1 MOL     -0.586523
      8 C3         -2.1710    3.1600    2.7700 c3        1 MOL      0.071696
      9 C4         -2.3660    4.4760    2.0550 c         1 MOL      0.637505
     10 O2         -2.6690    5.5390    2.6440 o         1 MOL     -0.597155
     11 C5         -3.5170    2.5540    3.0250 c3        1 MOL     -0.350173
     12 C6         -4.2900    1.9350    1.8320 c         1 MOL      0.766881
     13 O3         -3.7660    1.8310    0.6830 o         1 MOL     -0.692532
     14 O4         -5.4560    1.5320    2.1100 o         1 MOL     -0.692532
     15 H4         -1.9890    2.7880    4.9050 hn        1 MOL      0.335606
     16 H5         -1.6530    2.4510    2.1190 h1        1 MOL      0.089742
     17 H6         -4.1250    3.3370    3.4790 hc        1 MOL      0.078654
     18 H7         -3.3980    1.7650    3.7670 hc        1 MOL      0.078654
     19 N2         -2.2600    4.3460    0.7610 n         1 MOL     -0.484559
     20 C7         -2.4810    5.4310   -0.2310 c3        1 MOL      0.165438
     21 C8         -3.2870    5.0650   -1.5130 c         1 MOL      0.598301
     22 O5         -3.3420    5.8840   -2.4040 o         1 MOL     -0.572985
     23 C9         -1.1650    6.0320   -0.6980 c3        1 MOL     -0.111062
     24 H8         -1.8860    3.4540    0.4680 hn        1 MOL      0.232034
     25 H9         -2.9980    6.2440    0.2790 h1        1 MOL      0.038066
     26 H10        -0.4510    6.0070    0.1230 hc        1 MOL      0.027104
     27 H11        -0.6980    5.4140   -1.4610 hc        1 MOL      0.027104
     28 H12        -1.2750    7.0480   -1.0720 hc        1 MOL      0.027104
     29 N3         -3.9990    3.9300   -1.5560 n         1 MOL     -0.638275
     30 C10        -4.9780    3.4290   -2.5910 c3        1 MOL      0.399719
     31 C11        -6.3040    2.8580   -2.1820 c         1 MOL      0.278131
     32 O6         -7.3460    3.0060   -2.8560 o         1 MOL     -0.586304
     33 C12        -4.1740    2.5760   -3.5630 c3        1 MOL     -0.380744
     34 C13        -3.4450    1.4410   -2.8090 c         1 MOL      0.740422
     35 O7         -2.2270    1.3050   -2.9130 o         1 MOL     -0.685561
     36 O8         -4.0430    0.7240   -1.9930 o         1 MOL     -0.685561
     37 H13        -3.8450    3.2320   -0.8370 hn        1 MOL      0.335407
     38 H14        -5.2370    4.3040   -3.1990 h1        1 MOL      0.016314
     39 H15        -3.3410    3.2070   -3.8480 hc        1 MOL      0.098411
     40 H16        -4.8220    2.3370   -4.3970 hc        1 MOL      0.098411
     41 N4         -6.2960    2.1280   -1.1360 n         1 MOL     -0.024933
     42 C14        -7.4340    1.3590   -0.5530 c3        1 MOL     -0.186026
     43 C15        -7.3480   -0.1540   -0.7590 c         1 MOL      0.526887
     44 O9         -8.3190   -0.8030   -0.3710 o         1 MOL     -0.606294
     45 H17        -5.3430    2.1160   -0.8030 hn        1 MOL     -0.010222
     46 H18        -8.4040    1.5670   -1.0030 h1        1 MOL      0.126014
     47 H19        -7.6240    1.6430    0.4880 h1        1 MOL      0.126014
     48 N5         -6.2580   -0.6860   -1.3280 n         1 MOL     -0.337332
     49 C16        -6.1790   -2.0710   -1.9310 c3        1 MOL     -0.040315
     50 C17        -6.1730   -3.2170   -0.9490 c         1 MOL      0.439638
     51 O10        -5.7940   -4.3250   -1.3650 o         1 MOL     -0.525799
     52 C18        -5.0180   -2.0580   -3.0220 c3        1 MOL     -0.120579
     53 C19        -3.6290   -2.4240   -2.4380 c         1 MOL      0.414790
     54 N6         -2.6810   -2.5430   -3.2920 n         1 MOL     -0.586552
     55 O11        -3.3930   -2.4550   -1.2270 o         1 MOL     -0.294087
     56 H20        -5.5040   -0.1200   -1.6860 hn        1 MOL      0.277745
     57 H21        -7.1170   -2.2160   -2.4700 h1        1 MOL      0.106901
     58 H22        -4.9460   -1.0680   -3.4610 hc        1 MOL      0.050249
     59 H23        -5.3560   -2.8190   -3.7150 hc        1 MOL      0.050249
     60 H24        -2.9050   -2.3090   -4.2520 hn        1 MOL      0.328676
     61 H25        -1.7360   -2.4130   -2.9610 hn        1 MOL      0.328676
     62 N7         -6.3230   -3.0220    0.3650 n         1 MOL     -0.262143
     63 C20        -6.0950   -4.0160    1.3840 c3        1 MOL     -0.283237
     64 C21        -4.6800   -4.4690    1.7760 c         1 MOL      0.571332
     65 O12        -4.4870   -5.4310    2.5130 o         1 MOL     -0.572175
     66 H26        -6.4600   -2.0540    0.6250 hn        1 MOL      0.262272
     67 H27        -6.6550   -4.8940    1.0720 h1        1 MOL      0.130838
     68 H28        -6.4830   -3.6560    2.3390 h1        1 MOL      0.130838
     69 N8         -3.6440   -3.8270    1.1210 n         1 MOL     -0.360973
     70 C22        -2.3010   -4.4370    1.2350 c3        1 MOL     -0.068035
     71 C23        -1.2030   -3.3550    1.2900 c         1 MOL      0.387409
     72 O13        -1.3360   -2.3670    0.5350 o         1 MOL     -0.650333
     73 C24        -2.0040   -5.3580    0.0280 c3        1 MOL      0.669129
     74 C25        -3.0910   -6.3640   -0.1910 c3        1 MOL     -0.454055
     75 O14        -1.8040   -4.6890   -1.1570 oh        1 MOL     -0.650143
     76 H29        -3.7930   -3.0280    0.5280 hn        1 MOL      0.294366
     77 H30        -2.0750   -5.0440    2.1140 h1        1 MOL      0.045082
     78 H31        -1.1370   -5.9390    0.3360 h1        1 MOL     -0.086650
     79 H32        -2.5800   -4.1150   -1.1660 ho        1 MOL      0.341512
     80 H33        -2.7110   -7.1810   -0.8180 hc        1 MOL      0.091714
     81 H34        -3.3050   -6.7360    0.8160 hc        1 MOL      0.091714
     82 H35        -3.9600   -5.8780   -0.6180 hc        1 MOL      0.091714
     83 N9         -0.0300   -3.6040    1.8340 n         1 MOL     -0.296412
     84 C26         1.0830   -2.6570    1.8800 c3        1 MOL     -0.019351
     85 C27         1.9330   -2.8430    0.6200 c         1 MOL      0.502295
     86 O15         2.7610   -3.7770    0.5540 o         1 MOL     -0.569121
     87 C28         1.9340   -3.0190    3.0510 c3        1 MOL      0.034847
     88 C29         1.0410   -2.9170    4.3630 c3        1 MOL      0.142419
     89 C30         3.1760   -2.1090    3.1840 c3        1 MOL     -0.019151
     90 C31         1.8900   -3.0270    5.6000 c3        1 MOL     -0.179353
     91 H36         0.0570   -4.5010    2.2850 hn        1 MOL      0.247057
     92 H37         0.8630   -1.5880    1.9730 h1        1 MOL      0.018635
     93 H38         2.2900   -4.0390    3.0140 hc        1 MOL      0.005556
     94 H39         0.2160   -3.6370    4.3450 hc        1 MOL     -0.034793
     95 H40         0.4720   -1.9960    4.4760 hc        1 MOL     -0.034793
     96 H41         2.8400   -1.0850    3.0960 hc        1 MOL      0.009237
     97 H42         3.8550   -2.4010    3.9930 hc        1 MOL      0.009237
     98 H43         3.8130   -2.2420    2.3120 hc        1 MOL      0.009237
     99 H44         2.3890   -4.0000    5.6460 hc        1 MOL      0.027826
    100 H45         2.5870   -2.1830    5.6910 hc        1 MOL      0.027826
    101 H46         1.2460   -3.1410    6.4700 hc        1 MOL      0.027826
    102 N10         1.7260   -1.8600   -0.3040 n         1 MOL     -0.260055
    103 C32         2.5550   -1.6930   -1.4970 c3        1 MOL      0.044231
    104 C33         3.9640   -1.3540   -1.0700 c         1 MOL      0.424839
    105 O16         4.2140   -0.7140   -0.0240 o         1 MOL     -0.341399
    106 C34         1.8850   -0.6820   -2.4230 c3        1 MOL     -0.242418
    107 C35         0.4830   -1.0590   -2.8160 c         1 MOL      0.742225
    108 O17        -0.4810   -0.8430   -2.0530 o         1 MOL     -0.681592
    109 O18         0.3760   -1.5890   -3.9390 o         1 MOL     -0.681592
    110 H47         1.0350   -1.1870   -0.0300 hn        1 MOL      0.214853
    111 H48         2.6910   -2.6300   -2.0410 h1        1 MOL      0.071179
    112 H49         2.4920   -0.7210   -3.3300 hc        1 MOL      0.063083
    113 H50         1.9660    0.3270   -2.0250 hc        1 MOL      0.063083
    114 N11         5.0050   -1.7360   -1.8310 n         1 MOL     -0.641277
    115 C36         6.3940   -1.4470   -1.3370 c3        1 MOL      0.387078
    116 C37         6.6910    0.0890   -1.0890 c         1 MOL      0.344027
    117 O19         7.3560    0.4090   -0.1290 o         1 MOL     -0.452660
    118 C38         7.3230   -2.0650   -2.3010 c3        1 MOL     -0.305886
    119 C39         8.7970   -1.7030   -1.9830 ca        1 MOL      0.182233
    120 C40         9.4180   -2.2160   -0.8440 ca        1 MOL     -0.240451
    121 C41         9.5090   -0.9060   -2.8260 ca        1 MOL     -0.240451
    122 C42        10.7420   -2.0190   -0.4980 ca        1 MOL     -0.052158
    123 C43        10.8460   -0.5730   -2.5050 ca        1 MOL     -0.052158
    124 C44        11.4690   -1.1440   -1.3380 ca        1 MOL     -0.167203
    125 H51         4.8970   -2.2030   -2.7190 hn        1 MOL      0.349316
    126 H52         6.5650   -1.8500   -0.3410 h1        1 MOL      0.044705
    127 H53         7.0810   -1.6940   -3.2990 hc        1 MOL      0.089608
    128 H54         7.2450   -3.1520   -2.2890 hc        1 MOL      0.089608
    129 H55         8.8410   -2.9120   -0.2520 ha        1 MOL      0.130405
    130 H56         9.0430   -0.4450   -3.6740 ha        1 MOL      0.130405
    131 H57        11.2720   -2.4740    0.3210 ha        1 MOL      0.102460
    132 H58        11.4210    0.0610   -3.1570 ha        1 MOL      0.102460
    133 H59        12.5100   -0.9430   -1.1230 ha        1 MOL      0.106207
    134 N12         6.2100    1.1140   -1.8290 n         1 MOL     -0.101861
    135 C45         6.3210    2.5360   -1.3170 c3        1 MOL     -0.027917
    136 C46         5.6510    2.8540    0.0100 c         1 MOL      0.273588
    137 O20         6.1710    3.6600    0.7970 o         1 MOL     -0.485272
    138 C47         5.6620    3.3780   -2.4960 c3        1 MOL      0.005866
    139 C48         5.7910    2.4660   -3.7360 c3        1 MOL     -0.034768
    140 C49         5.6740    1.0290   -3.1750 c3        1 MOL      0.047291
    141 H60         7.3620    2.8320   -1.1870 h1        1 MOL      0.067371
    142 H61         4.5890    3.5430   -2.3840 hc        1 MOL      0.038896
    143 H62         6.0240    4.3940   -2.6350 hc        1 MOL      0.038896
    144 H63         5.0750    2.7300   -4.5090 hc        1 MOL      0.013910
    145 H64         6.8110    2.5120   -4.1320 hc        1 MOL      0.013910
    146 H65         4.6430    0.7020   -3.0270 h1        1 MOL      0.003450
    147 H66         6.1680    0.2840   -3.8070 h1        1 MOL      0.003450
    148 N13         4.5210    2.1990    0.3430 n         1 MOL     -0.142122
    149 C50         3.8740    2.2890    1.6590 c3        1 MOL     -0.161065
    150 C51         4.7350    1.4980    2.7260 c         1 MOL      0.451316
    151 O21         4.7360    1.8970    3.8930 o         1 MOL     -0.549769
    152 C52         2.4000    1.7460    1.4700 c3        1 MOL      0.122961
    153 C53         1.4580    2.4260    0.4270 c3        1 MOL     -0.146248
    154 C54         0.1390    1.5910    0.2770 c         1 MOL      0.446214
    155 O22        -0.9070    2.0160   -0.2140 o         1 MOL     -0.525890
    156 O23         0.0860    0.4270    0.6380 o         1 MOL     -0.525890
    157 H67         4.1900    1.4340   -0.2400 hn        1 MOL      0.170769
    158 H68         3.8140    3.3290    1.9690 h1        1 MOL      0.146062
    159 H69         1.8830    1.8000    2.4320 hc        1 MOL     -0.016461
    160 H70         2.4670    0.6740    1.2520 hc        1 MOL     -0.016461
    161 H71         1.9790    2.5630   -0.5180 hc        1 MOL      0.052419
    162 H72         1.2860    3.4020    0.8870 hc        1 MOL      0.052419
    163 N14         5.6590    0.6210    2.3050 n         1 MOL     -0.027815
    164 C55         6.5520   -0.0400    3.2630 c3        1 MOL     -0.173295
    165 H73         6.5120    0.4840    4.2180 h1        1 MOL      0.067876
    166 H74         6.2350   -1.0730    3.4020 h1        1 MOL      0.067876
    167 H75         7.5730   -0.0200    2.8810 h1        1 MOL      0.067876
    168 H76         5.5000    0.1410    1.4290 hn        1 MOL      0.061914
    169 Ca1        -2.2310   -0.0760   -0.4370 Ca        1 MOL      1.635712
    170 O24        -1.5300   -0.2080    2.4680 oh        1 MOL     -0.747278
    171 H77        -0.7010   -0.1020    1.9980 ho        1 MOL      0.369020
    172 H78        -1.2750   -0.2020    3.3910 ho        1 MOL      0.369020
    173 O25        -4.2820   -0.9360    0.8700 oh        1 MOL     -0.747278
    174 H79        -4.8320   -0.2670    0.4670 ho        1 MOL      0.369020
    175 H80        -4.7130   -1.1150    1.7110 ho        1 MOL      0.369020
@<TRIPOS>BOND
     1    1    2 1   
     2    1    4 1   
     3    1    5 1   
     4    1    6 1   
     5    2    3 2   
     6    2    7 1   
     7    7    8 1   
     8    7   15 1   
     9    8    9 1   
    10    8   11 1   
    11    8   16 1   
    12    9   10 2   
    13    9   19 1   
    14   11   12 1   
    15   11   17 1   
    16   11   18 1   
    17   12   13 1   
    18   12   14 1   
    19   19   20 1   
    20   19   24 1   
    21   20   21 1   
    22   20   23 1   
    23   20   25 1   
    24   21   22 2   
    25   21   29 1   
    26   23   26 1   
    27   23   27 1   
    28   23   28 1   
    29   29   30 1   
    30   29   37 1   
    31   30   31 1   
    32   30   33 1   
    33   30   38 1   
    34   31   32 2   
    35   31   41 1   
    36   33   34 1   
    37   33   39 1   
    38   33   40 1   
    39   34   35 1   
    40   34   36 1   
    41   41   42 1   
    42   41   45 1   
    43   42   43 1   
    44   42   46 1   
    45   42   47 1   
    46   43   44 2   
    47   43   48 1   
    48   48   49 1   
    49   48   56 1   
    50   49   50 1   
    51   49   52 1   
    52   49   57 1   
    53   50   51 2   
    54   50   62 1   
    55   52   53 1   
    56   52   58 1   
    57   52   59 1   
    58   53   54 1   
    59   53   55 2   
    60   54   60 1   
    61   54   61 1   
    62   62   63 1   
    63   62   66 1   
    64   63   64 1   
    65   63   67 1   
    66   63   68 1   
    67   64   65 2   
    68   64   69 1   
    69   69   70 1   
    70   69   76 1   
    71   70   71 1   
    72   70   73 1   
    73   70   77 1   
    74   71   72 2   
    75   71   83 1   
    76   73   74 1   
    77   73   75 1   
    78   73   78 1   
    79   74   80 1   
    80   74   81 1   
    81   74   82 1   
    82   75   79 1   
    83   83   84 1   
    84   83   91 1   
    85   84   85 1   
    86   84   87 1   
    87   84   92 1   
    88   85   86 2   
    89   85  102 1   
    90   87   88 1   
    91   87   89 1   
    92   87   93 1   
    93   88   90 1   
    94   88   94 1   
    95   88   95 1   
    96   89   96 1   
    97   89   97 1   
    98   89   98 1   
    99   90   99 1   
   100   90  100 1   
   101   90  101 1   
   102  102  103 1   
   103  102  110 1   
   104  103  104 1   
   105  103  106 1   
   106  103  111 1   
   107  104  105 2   
   108  104  114 1   
   109  106  107 1   
   110  106  112 1   
   111  106  113 1   
   112  107  108 1   
   113  107  109 1   
   114  114  115 1   
   115  114  125 1   
   116  115  116 1   
   117  115  118 1   
   118  115  126 1   
   119  116  117 2   
   120  116  134 1   
   121  118  119 1   
   122  118  127 1   
   123  118  128 1   
   124  119  120 ar  
   125  119  121 ar  
   126  120  122 ar  
   127  120  129 1   
   128  121  123 ar  
   129  121  130 1   
   130  122  124 ar  
   131  122  131 1   
   132  123  124 ar  
   133  123  132 1   
   134  124  133 1   
   135  134  135 1   
   136  134  140 1   
   137  135  136 1   
   138  135  138 1   
   139  135  141 1   
   140  136  137 2   
   141  136  148 1   
   142  138  139 1   
   143  138  142 1   
   144  138  143 1   
   145  139  140 1   
   146  139  144 1   
   147  139  145 1   
   148  140  146 1   
   149  140  147 1   
   150  148  149 1   
   151  148  157 1   
   152  149  150 1   
   153  149  152 1   
   154  149  158 1   
   155  150  151 2   
   156  150  163 1   
   157  152  153 1   
   158  152  159 1   
   159  152  160 1   
   160  153  154 1   
   161  153  161 1   
   162  153  162 1   
   163  154  155 1   
   164  154  156 1   
   165  163  164 1   
   166  163  168 1   
   167  164  165 1   
   168  164  166 1   
   169  164  167 1   
   170  170  171 1   
   171  170  172 1   
   172  173  174 1   
   173  173  175 1   
@<TRIPOS>SUBSTRUCTURE
     1 MOL         1 TEMP              0 ****  ****    0 ROOT
