@<TRIPOS>MOLECULE
MOL
  186   183     1     0     0
SMALL
resp


@<TRIPOS>ATOM
      1 C1          0.2190   -1.9680    5.9920 c3        1 MOL     -0.408883
      2 C2          0.6560   -2.2510    4.4880 c         1 MOL      0.760673
      3 O1         -0.0640   -2.9400    3.7400 o         1 MOL     -0.590149
      4 H1         -0.4420   -2.7640    6.3350 hc        1 MOL      0.095148
      5 H2          1.1040   -1.9320    6.6270 hc        1 MOL      0.095148
      6 H3         -0.3060   -1.0140    6.0460 hc        1 MOL      0.095148
      7 N1          1.8670   -1.7450    4.1500 n         1 MOL     -0.593687
      8 C3          2.5140   -1.7790    2.8000 c3        1 MOL      0.043057
      9 C4          3.1330   -3.2160    2.5780 c         1 MOL      0.652310
     10 O2          3.7400   -3.7940    3.4080 o         1 MOL     -0.571945
     11 C5          3.6640   -0.7560    2.7460 c3        1 MOL     -0.153163
     12 C6          4.3870   -0.6210    1.3660 c         1 MOL      0.633631
     13 O3          5.6160   -0.2300    1.4340 o         1 MOL     -0.673544
     14 O4          3.8030   -0.9550    0.3260 o         1 MOL     -0.673544
     15 H4          2.3490   -1.2140    4.8590 hn        1 MOL      0.296636
     16 H5          1.7700   -1.4960    2.0520 h1        1 MOL      0.074765
     17 H6          4.4280   -1.0010    3.4830 hc        1 MOL      0.045718
     18 H7          3.1980    0.1780    3.0460 hc        1 MOL      0.045718
     19 N2          2.7300   -3.7410    1.3720 n         1 MOL     -0.445412
     20 C7          3.0500   -5.1560    0.9760 c3        1 MOL     -0.026494
     21 C8          4.2720   -5.1150   -0.0310 c         1 MOL      0.463696
     22 O5          5.1970   -5.9280    0.0710 o         1 MOL     -0.531122
     23 C9          1.8300   -5.8130    0.2990 c3        1 MOL      0.086200
     24 C10         0.5580   -5.5500    1.2000 c3        1 MOL      0.050103
     25 C11         2.1230   -7.3450    0.1740 c3        1 MOL     -0.217887
     26 C12        -0.7480   -6.0260    0.5570 c3        1 MOL     -0.243827
     27 H8          2.2140   -3.1120    0.7840 hn        1 MOL      0.242266
     28 H9          3.3330   -5.7480    1.8490 h1        1 MOL      0.084762
     29 H10         1.6130   -5.4260   -0.6970 hc        1 MOL      0.061390
     30 H11         0.3990   -4.4950    1.4090 hc        1 MOL      0.017093
     31 H12         0.6600   -6.0350    2.1700 hc        1 MOL      0.017093
     32 H13         3.1120   -7.5940   -0.2180 hc        1 MOL      0.042268
     33 H14         2.1640   -7.8440    1.1350 hc        1 MOL      0.042268
     34 H15         1.4170   -7.9150   -0.4330 hc        1 MOL      0.042268
     35 H16        -0.8230   -5.3910   -0.3230 hc        1 MOL      0.050341
     36 H17        -0.6700   -7.0910    0.3530 hc        1 MOL      0.050341
     37 H18        -1.7120   -5.8450    1.0410 hc        1 MOL      0.050341
     38 N3          4.2560   -4.0310   -0.8920 n         1 MOL     -0.228358
     39 C13         5.2740   -3.8540   -1.8970 c3        1 MOL     -0.306931
     40 C14         6.6780   -3.3240   -1.3910 c         1 MOL      0.585264
     41 O6          7.6640   -3.8370   -1.9090 o         1 MOL     -0.569904
     42 C15         4.7950   -2.8320   -2.9170 c3        1 MOL      0.125194
     43 C16         3.2890   -2.6820   -3.1160 c         1 MOL      0.587671
     44 O7          2.7800   -1.5370   -2.9110 o         1 MOL     -0.664956
     45 O8          2.7400   -3.5810   -3.7640 o         1 MOL     -0.664956
     46 H19         3.4960   -3.3670   -0.8950 hn        1 MOL      0.233701
     47 H20         5.4000   -4.8540   -2.3290 h1        1 MOL      0.138163
     48 H21         5.2810   -3.0890   -3.8550 hc        1 MOL     -0.025121
     49 H22         5.1470   -1.8510   -2.6120 hc        1 MOL     -0.025121
     50 N4          6.7160   -2.4370   -0.3760 n         1 MOL     -0.311670
     51 C17         8.0080   -1.7700    0.0620 c3        1 MOL     -0.088495
     52 C18         8.2610   -0.4040   -0.6220 c         1 MOL      0.510581
     53 O9          9.4090   -0.0880   -0.8320 o         1 MOL     -0.576750
     54 H23         5.8660   -2.1520    0.0840 hn        1 MOL      0.249065
     55 H24         8.9230   -2.3620   -0.0200 h1        1 MOL      0.078020
     56 H25         7.8450   -1.6160    1.1220 h1        1 MOL      0.078020
     57 N5          7.1420    0.3300   -0.8760 n         1 MOL     -0.306304
     58 C19         7.1010    1.7080   -1.3580 c3        1 MOL      0.087834
     59 C20         6.9650    2.7970   -0.2400 c         1 MOL      0.409710
     60 O10         7.3040    3.9610   -0.4470 o         1 MOL     -0.547476
     61 C21         6.2090    1.8180   -2.6240 c3        1 MOL     -0.224304
     62 C22         4.7490    1.7920   -2.2960 c         1 MOL      0.664770
     63 O11         3.9340    1.5310   -3.2220 o         1 MOL     -0.726652
     64 O12         4.3930    1.8750   -1.0710 o         1 MOL     -0.726652
     65 H26         6.3390   -0.1260   -0.4710 hn        1 MOL      0.208855
     66 H27         8.0580    1.9580   -1.8120 h1        1 MOL      0.046233
     67 H28         6.4020    0.9940   -3.3000 hc        1 MOL      0.074392
     68 H29         6.4680    2.7690   -3.0810 hc        1 MOL      0.074392
     69 N6          6.5200    2.3820    0.9580 n         1 MOL     -0.231949
     70 C23         6.3570    3.3470    2.0290 c3        1 MOL     -0.145987
     71 C24         5.0710    4.2390    1.9040 c         1 MOL      0.564563
     72 O13         5.0130    5.2240    2.6400 o         1 MOL     -0.600216
     73 H30         6.3160    1.4090    1.1560 hn        1 MOL      0.245960
     74 H31         7.1410    4.0900    2.2070 h1        1 MOL      0.078938
     75 H32         6.2140    2.6820    2.8780 h1        1 MOL      0.078938
     76 N7          4.0940    3.8940    1.0640 n         1 MOL     -0.384307
     77 C25         2.6810    4.4560    1.1400 c3        1 MOL      0.122407
     78 C26         1.6090    3.3610    1.1720 c         1 MOL      0.491104
     79 O14         1.8700    2.2500    0.7330 o         1 MOL     -0.601247
     80 C27         2.4350    5.4870    0.0230 c3        1 MOL     -0.260415
     81 C28         3.2210    6.7780    0.2290 c3        1 MOL     -0.069134
     82 C29         2.9860    7.8120   -0.8180 c         1 MOL      0.614403
     83 N8          3.7040    7.6220   -1.8890 n         1 MOL     -0.761749
     84 O15         2.3770    8.8680   -0.6020 o         1 MOL     -0.587196
     85 H33         4.2170    3.1190    0.4270 hn        1 MOL      0.299786
     86 H34         2.6340    4.9980    2.0890 h1        1 MOL      0.044474
     87 H35         1.3890    5.7910   -0.0080 hc        1 MOL      0.083030
     88 H36         2.7330    5.0610   -0.9350 hc        1 MOL      0.083030
     89 H37         4.2970    6.5760    0.1710 hc        1 MOL      0.064897
     90 H38         3.0360    7.2290    1.2070 hc        1 MOL      0.064897
     91 H39         4.3070    6.8190   -1.9890 hn        1 MOL      0.351721
     92 H40         3.5660    8.2380   -2.6760 hn        1 MOL      0.351721
     93 N9          0.4300    3.6420    1.6670 n         1 MOL     -0.430715
     94 C30        -0.6360    2.6310    1.8590 c3        1 MOL      0.320800
     95 C31        -1.6450    2.9540    0.7990 c         1 MOL      0.257707
     96 O16        -2.3540    3.9660    0.9190 o         1 MOL     -0.542842
     97 C32        -1.1820    2.5920    3.3150 c3        1 MOL      0.089228
     98 C33        -2.2780    1.5910    3.5340 c3        1 MOL     -0.217368
     99 C34        -0.0070    2.1380    4.2790 c3        1 MOL     -0.217368
    100 H41         0.2170    4.5540    2.0580 hn        1 MOL      0.256636
    101 H42        -0.2000    1.6390    1.7750 h1        1 MOL      0.086182
    102 H43        -1.5450    3.6100    3.4990 hc        1 MOL     -0.012953
    103 H44        -3.1620    1.7290    2.9040 hc        1 MOL      0.043747
    104 H45        -1.9180    0.5830    3.3510 hc        1 MOL      0.043747
    105 H46        -2.5190    1.5690    4.5940 hc        1 MOL      0.043747
    106 H47         0.4210    1.1700    4.0040 hc        1 MOL      0.043747
    107 H48         0.7630    2.8990    4.2260 hc        1 MOL      0.043747
    108 H49        -0.3340    2.0350    5.3170 hc        1 MOL      0.043747
    109 N10        -1.9190    1.9630   -0.0450 n         1 MOL     -0.145427
    110 C35        -3.1160    2.1360   -0.9680 c3        1 MOL      0.090812
    111 C36        -4.3510    1.8860   -0.1210 c         1 MOL      0.342477
    112 O17        -4.4500    1.1760    0.9090 o         1 MOL     -0.286780
    113 C37        -2.7230    1.2240   -2.1420 c3        1 MOL     -0.125871
    114 C38        -3.4740    1.4900   -3.3810 c         1 MOL      0.554705
    115 N11        -3.1120    0.9080   -4.5190 n         1 MOL     -0.766520
    116 O18        -4.5000    2.1760   -3.4230 o         1 MOL     -0.555921
    117 H50        -1.3340    1.1540   -0.1320 hn        1 MOL      0.125216
    118 H51        -3.2270    3.1570   -1.3250 h1        1 MOL      0.066415
    119 H52        -2.9670    0.1850   -1.9210 hc        1 MOL      0.068880
    120 H53        -1.6740    1.3850   -2.3870 hc        1 MOL      0.068880
    121 H54        -2.2360    0.4190   -4.6660 hn        1 MOL      0.370781
    122 H55        -3.6950    1.0630   -5.3310 hn        1 MOL      0.370781
    123 N12        -5.4910    2.2300   -0.7540 n         1 MOL     -0.453186
    124 C39        -6.7770    1.7810   -0.2120 c3        1 MOL      0.143343
    125 C40        -6.9150    0.3480   -0.1810 c         1 MOL      0.604154
    126 O19        -7.2080   -0.2980    0.8630 o         1 MOL     -0.529712
    127 C41        -7.9160    2.3900   -1.0260 c3        1 MOL     -0.003758
    128 C42        -9.2350    1.9790   -0.3710 ca        1 MOL     -0.159448
    129 C43        -9.5640    2.3590    0.9360 ca        1 MOL     -0.026703
    130 C44       -10.0370    1.0450   -1.0740 ca        1 MOL     -0.026703
    131 C45       -10.7650    1.8110    1.5140 ca        1 MOL     -0.364016
    132 C46       -11.1970    0.5320   -0.4500 ca        1 MOL     -0.364016
    133 C47       -11.5430    0.8650    0.8670 ca        1 MOL      0.447619
    134 O20       -12.6100    0.3010    1.5810 oh        1 MOL     -0.543169
    135 H56        -5.4450    2.8710   -1.5350 hn        1 MOL      0.282319
    136 H57        -6.9280    2.1320    0.8020 h1        1 MOL      0.038806
    137 H58        -7.9270    2.0430   -2.0580 hc        1 MOL      0.024354
    138 H59        -7.7800    3.4700   -1.1390 hc        1 MOL      0.024354
    139 H60        -9.0000    3.1150    1.4450 ha        1 MOL      0.118323
    140 H61        -9.8080    0.7230   -2.0800 ha        1 MOL      0.118323
    141 H62       -10.9740    2.0090    2.5560 ha        1 MOL      0.159350
    142 H63       -11.7510   -0.2300   -0.9720 ha        1 MOL      0.159350
    143 H64       -13.2170   -0.2590    1.0770 ho        1 MOL      0.371043
    144 N13        -6.4760   -0.3920   -1.2460 n         1 MOL     -0.313769
    145 C48        -6.5430   -1.8590   -1.2830 c3        1 MOL     -0.222971
    146 C49        -5.6100   -2.4830   -0.2860 c         1 MOL      0.532795
    147 O21        -5.7630   -3.6620    0.0570 o         1 MOL     -0.542331
    148 C50        -6.3290   -2.4050   -2.7260 c3        1 MOL      0.036089
    149 C51        -4.9710   -2.0660   -3.3950 c3        1 MOL     -0.223383
    150 C52        -4.9920   -2.3120   -4.8670 c         1 MOL      0.679255
    151 O22        -4.5500   -3.3840   -5.4090 o         1 MOL     -0.723595
    152 O23        -5.4550   -1.4150   -5.6350 o         1 MOL     -0.723595
    153 H65        -6.3700    0.0800   -2.1250 hn        1 MOL      0.260738
    154 H66        -7.5410   -2.1890   -1.0120 h1        1 MOL      0.098157
    155 H67        -7.1550   -1.9880   -3.3120 hc        1 MOL      0.034779
    156 H68        -6.4620   -3.4890   -2.7260 hc        1 MOL      0.034779
    157 H69        -4.2320   -2.6710   -2.8800 hc        1 MOL      0.041224
    158 H70        -4.7580   -1.0090   -3.2800 hc        1 MOL      0.041224
    159 N14        -4.5950   -1.7510    0.2330 n         1 MOL     -0.158597
    160 C53        -3.6550   -2.1800    1.3380 c3        1 MOL     -0.098331
    161 C54        -4.1740   -2.0070    2.7360 c         1 MOL      0.450182
    162 O24        -4.1380   -2.9150    3.5680 o         1 MOL     -0.570576
    163 C55        -2.3140   -1.4500    1.1890 c3        1 MOL      0.163534
    164 C56        -1.3920   -2.0310    0.0730 c3        1 MOL     -0.049680
    165 C57        -0.0050   -1.3500   -0.0080 c         1 MOL      0.636462
    166 O25         0.9630   -2.1020   -0.3400 o         1 MOL     -0.696918
    167 O26         0.1180   -0.1030    0.0700 o         1 MOL     -0.696918
    168 H71        -4.3970   -0.8540   -0.1750 hn        1 MOL      0.041522
    169 H72        -3.3600   -3.2150    1.1560 h1        1 MOL      0.100023
    170 H73        -1.6870   -1.5220    2.0820 hc        1 MOL     -0.005671
    171 H74        -2.4560   -0.3700    1.1720 hc        1 MOL     -0.005671
    172 H75        -1.8020   -1.9320   -0.9210 hc        1 MOL      0.026160
    173 H76        -1.2270   -3.0960    0.2510 hc        1 MOL      0.026160
    174 N15        -4.8560   -0.9240    3.0000 n         1 MOL      0.079679
    175 C58        -5.5830   -0.5950    4.1780 c3        1 MOL     -0.334308
    176 H77        -6.2640   -1.4100    4.4240 h1        1 MOL      0.103915
    177 H78        -4.8890   -0.4410    5.0030 h1        1 MOL      0.103915
    178 H79        -6.1550    0.3180    4.0080 h1        1 MOL      0.103915
    179 H80        -4.8250   -0.2490    2.2470 hn        1 MOL     -0.032715
    180 Ca1         2.2120    0.3870   -1.3250 Ca        1 MOL      1.740840
    181 O27         0.3820    0.1780   -3.1710 oh        1 MOL     -0.848280
    182 H81         0.5610    0.2710   -4.1090 ho        1 MOL      0.411197
    183 H82        -0.4720   -0.2490   -3.1320 ho        1 MOL      0.411197
    184 O28         1.4790    2.7770   -2.3150 oh        1 MOL     -0.848280
    185 H83         1.1660    2.8550   -3.2070 ho        1 MOL      0.411197
    186 H84         2.3430    3.1910   -2.3160 ho        1 MOL      0.411197
@<TRIPOS>BOND
     1    1    2 1   
     2    1    4 1   
     3    1    5 1   
     4    1    6 1   
     5    2    3 2   
     6    2    7 1   
     7    7    8 1   
     8    7   15 1   
     9    8    9 1   
    10    8   11 1   
    11    8   16 1   
    12    9   10 2   
    13    9   19 1   
    14   11   12 1   
    15   11   17 1   
    16   11   18 1   
    17   12   13 1   
    18   12   14 1   
    19   19   20 1   
    20   19   27 1   
    21   20   21 1   
    22   20   23 1   
    23   20   28 1   
    24   21   22 2   
    25   21   38 1   
    26   23   24 1   
    27   23   25 1   
    28   23   29 1   
    29   24   26 1   
    30   24   30 1   
    31   24   31 1   
    32   25   32 1   
    33   25   33 1   
    34   25   34 1   
    35   26   35 1   
    36   26   36 1   
    37   26   37 1   
    38   38   39 1   
    39   38   46 1   
    40   39   40 1   
    41   39   42 1   
    42   39   47 1   
    43   40   41 2   
    44   40   50 1   
    45   42   43 1   
    46   42   48 1   
    47   42   49 1   
    48   43   44 1   
    49   43   45 1   
    50   50   51 1   
    51   50   54 1   
    52   51   52 1   
    53   51   55 1   
    54   51   56 1   
    55   52   53 2   
    56   52   57 1   
    57   57   58 1   
    58   57   65 1   
    59   58   59 1   
    60   58   61 1   
    61   58   66 1   
    62   59   60 2   
    63   59   69 1   
    64   61   62 1   
    65   61   67 1   
    66   61   68 1   
    67   62   63 1   
    68   62   64 1   
    69   69   70 1   
    70   69   73 1   
    71   70   71 1   
    72   70   74 1   
    73   70   75 1   
    74   71   72 2   
    75   71   76 1   
    76   76   77 1   
    77   76   85 1   
    78   77   78 1   
    79   77   80 1   
    80   77   86 1   
    81   78   79 2   
    82   78   93 1   
    83   80   81 1   
    84   80   87 1   
    85   80   88 1   
    86   81   82 1   
    87   81   89 1   
    88   81   90 1   
    89   82   83 1   
    90   82   84 2   
    91   83   91 1   
    92   83   92 1   
    93   93   94 1   
    94   93  100 1   
    95   94   95 1   
    96   94   97 1   
    97   94  101 1   
    98   95   96 2   
    99   95  109 1   
   100   97   98 1   
   101   97   99 1   
   102   97  102 1   
   103   98  103 1   
   104   98  104 1   
   105   98  105 1   
   106   99  106 1   
   107   99  107 1   
   108   99  108 1   
   109  109  110 1   
   110  109  117 1   
   111  110  111 1   
   112  110  113 1   
   113  110  118 1   
   114  111  112 2   
   115  111  123 1   
   116  113  114 1   
   117  113  119 1   
   118  113  120 1   
   119  114  115 1   
   120  114  116 2   
   121  115  121 1   
   122  115  122 1   
   123  123  124 1   
   124  123  135 1   
   125  124  125 1   
   126  124  127 1   
   127  124  136 1   
   128  125  126 2   
   129  125  144 1   
   130  127  128 1   
   131  127  137 1   
   132  127  138 1   
   133  128  129 ar  
   134  128  130 ar  
   135  129  131 ar  
   136  129  139 1   
   137  130  132 ar  
   138  130  140 1   
   139  131  133 ar  
   140  131  141 1   
   141  132  133 ar  
   142  132  142 1   
   143  133  134 1   
   144  134  143 1   
   145  144  145 1   
   146  144  153 1   
   147  145  146 1   
   148  145  148 1   
   149  145  154 1   
   150  146  147 2   
   151  146  159 1   
   152  148  149 1   
   153  148  155 1   
   154  148  156 1   
   155  149  150 1   
   156  149  157 1   
   157  149  158 1   
   158  150  151 1   
   159  150  152 1   
   160  159  160 1   
   161  159  168 1   
   162  160  161 1   
   163  160  163 1   
   164  160  169 1   
   165  161  162 2   
   166  161  174 1   
   167  163  164 1   
   168  163  170 1   
   169  163  171 1   
   170  164  165 1   
   171  164  172 1   
   172  164  173 1   
   173  165  166 1   
   174  165  167 1   
   175  174  175 1   
   176  174  179 1   
   177  175  176 1   
   178  175  177 1   
   179  175  178 1   
   180  181  182 1   
   181  181  183 1   
   182  184  185 1   
   183  184  186 1   
@<TRIPOS>SUBSTRUCTURE
     1 MOL         1 TEMP              0 ****  ****    0 ROOT
