@<TRIPOS>MOLECULE
MOL
  175   173     1     0     0
SMALL
resp


@<TRIPOS>ATOM
      1 C1         -0.9140    3.9330    5.6320 c3        1 MOL     -0.405512
      2 C2         -1.2480    3.3620    4.2780 c         1 MOL      0.802495
      3 O1         -0.3700    3.3410    3.3890 o         1 MOL     -0.604073
      4 H1         -1.1680    3.2070    6.4040 hc        1 MOL      0.097516
      5 H2          0.1520    4.1560    5.6800 hc        1 MOL      0.097516
      6 H3         -1.4850    4.8470    5.7920 hc        1 MOL      0.097516
      7 N1         -2.5280    2.9730    4.0430 n         1 MOL     -0.799712
      8 C3         -3.0020    2.5430    2.6970 c3        1 MOL      0.528455
      9 C4         -3.4450    3.7120    1.7590 c         1 MOL      0.507833
     10 O2         -4.2830    4.5430    2.1280 o         1 MOL     -0.618982
     11 C5         -4.0360    1.4940    2.8180 c3        1 MOL     -0.049325
     12 C6         -4.4800    0.9720    1.4450 c         1 MOL      0.714540
     13 O3         -5.5180    0.2610    1.4530 o         1 MOL     -0.705570
     14 O4         -3.7340    1.0550    0.4210 o         1 MOL     -0.705570
     15 H4         -3.1140    2.9680    4.8680 hn        1 MOL      0.346159
     16 H5         -2.1190    2.1210    2.2120 h1        1 MOL     -0.215725
     17 H6         -4.8280    1.8820    3.4470 hc        1 MOL     -0.020971
     18 H7         -3.4500    0.7410    3.3420 hc        1 MOL     -0.020971
     19 N2         -2.7400    3.8200    0.6710 n         1 MOL     -0.320500
     20 C7         -2.7090    5.0100   -0.1290 c3        1 MOL      0.123982
     21 C8         -3.5230    4.8530   -1.4390 c         1 MOL      0.325827
     22 O5         -3.5970    5.7290   -2.2770 o         1 MOL     -0.519390
     23 C9         -1.2650    5.5060   -0.3980 c3        1 MOL     -0.284149
     24 H8         -2.0760    3.1330    0.3530 hn        1 MOL      0.343772
     25 H9         -3.0610    5.8400    0.4830 h1        1 MOL      0.066954
     26 H10        -0.6810    5.2740    0.4950 hc        1 MOL      0.091274
     27 H11        -0.7480    5.0420   -1.2330 hc        1 MOL      0.091274
     28 H12        -1.2700    6.5720   -0.6530 hc        1 MOL      0.091274
     29 N3         -4.0460    3.6420   -1.7150 n         1 MOL     -0.246395
     30 C10        -4.9380    3.3650   -2.8790 c3        1 MOL      0.100451
     31 C11        -6.1880    2.5920   -2.5050 c         1 MOL      0.491787
     32 O6         -7.0770    2.4470   -3.3450 o         1 MOL     -0.561831
     33 C12        -4.1330    2.8130   -3.9940 c3        1 MOL     -0.100542
     34 C13        -3.3730    1.6100   -3.6820 c         1 MOL      0.781439
     35 O7         -2.4420    1.2850   -4.4660 o         1 MOL     -0.726889
     36 O8         -3.5630    0.9430   -2.6300 o         1 MOL     -0.726889
     37 H13        -3.7910    2.8600   -1.1180 hn        1 MOL      0.140221
     38 H14        -5.3390    4.3130   -3.2070 h1        1 MOL      0.065369
     39 H15        -3.5330    3.6710   -4.2890 hc        1 MOL      0.025507
     40 H16        -4.8070    2.6250   -4.8300 hc        1 MOL      0.025507
     41 N4         -6.3470    2.2470   -1.2260 n         1 MOL     -0.293853
     42 C14        -7.5620    1.6680   -0.6450 c3        1 MOL     -0.148016
     43 C15        -7.7390    0.1420   -0.9520 c         1 MOL      0.485260
     44 O9         -8.8370   -0.3710   -0.7910 o         1 MOL     -0.593398
     45 H17        -5.5060    2.3030   -0.6540 hn        1 MOL      0.144120
     46 H18        -8.3910    2.3490   -0.8580 h1        1 MOL      0.119373
     47 H19        -7.5500    1.6010    0.4420 h1        1 MOL      0.119373
     48 N5         -6.7040   -0.5590   -1.4220 n         1 MOL     -0.191735
     49 C16        -6.8000   -1.9950   -1.7070 c3        1 MOL      0.055256
     50 C17        -6.8470   -2.8890   -0.5060 c         1 MOL      0.363757
     51 O10        -7.0170   -4.0840   -0.6670 o         1 MOL     -0.543312
     52 C18        -5.7620   -2.4410   -2.7220 c3        1 MOL     -0.419377
     53 C19        -4.4680   -3.0560   -2.0880 c         1 MOL      0.676366
     54 N6         -4.0940   -4.2670   -2.4710 n         1 MOL     -0.658364
     55 O11        -3.7700   -2.4440   -1.3410 o         1 MOL     -0.635532
     56 H20        -5.9140    0.0560   -1.5980 hn        1 MOL      0.139308
     57 H21        -7.7400   -2.1290   -2.2400 h1        1 MOL      0.114848
     58 H22        -5.4370   -1.6450   -3.3920 hc        1 MOL      0.139333
     59 H23        -6.2830   -3.2420   -3.2470 hc        1 MOL      0.139333
     60 H24        -4.4830   -4.7330   -3.2780 hn        1 MOL      0.324374
     61 H25        -3.1700   -4.5730   -2.2020 hn        1 MOL      0.324374
     62 N7         -6.5120   -2.3450    0.6610 n         1 MOL     -0.032791
     63 C20        -6.4810   -2.9450    1.9630 c3        1 MOL     -0.285671
     64 C21        -5.1500   -3.4650    2.4540 c         1 MOL      0.575164
     65 O12        -5.0760   -3.6960    3.5880 o         1 MOL     -0.558089
     66 H26        -6.2450   -1.3690    0.6670 hn        1 MOL      0.186211
     67 H27        -7.1720   -3.7950    1.9280 h1        1 MOL      0.119545
     68 H28        -6.8750   -2.2050    2.6520 h1        1 MOL      0.119545
     69 N8         -4.0740   -3.4030    1.6480 n         1 MOL     -0.068765
     70 C22        -2.7450   -3.7850    2.0660 c3        1 MOL     -0.074579
     71 C23        -1.7470   -2.5660    1.9080 c         1 MOL      0.584425
     72 O13        -2.0370   -1.5700    1.1870 o         1 MOL     -0.656303
     73 C24        -2.1260   -5.0860    1.4750 c3        1 MOL      0.305167
     74 C25        -3.0560   -6.2750    1.8010 c3        1 MOL     -0.199091
     75 O14        -2.1040   -4.9740    0.0530 oh        1 MOL     -0.594828
     76 H29        -4.2170   -3.1020    0.6960 hn        1 MOL      0.103083
     77 H30        -2.8150   -3.8640    3.1550 h1        1 MOL      0.046241
     78 H31        -1.1240   -5.3220    1.8250 h1        1 MOL      0.037256
     79 H32        -2.1450   -5.8930   -0.2290 ho        1 MOL      0.390765
     80 H33        -2.8220   -6.6450    2.7950 hc        1 MOL      0.041884
     81 H34        -4.1090   -6.1030    1.5390 hc        1 MOL      0.041884
     82 H35        -2.6790   -7.0260    1.1040 hc        1 MOL      0.041884
     83 N9         -0.5160   -2.6300    2.4120 n         1 MOL     -0.355884
     84 C26         0.6330   -1.7770    2.0170 c3        1 MOL      0.083041
     85 C27         1.6620   -2.4920    1.2090 c         1 MOL      0.308482
     86 O15         2.0620   -3.6350    1.5030 o         1 MOL     -0.550659
     87 C28         1.1480   -0.8310    3.1020 c3        1 MOL     -0.049816
     88 C29         1.6680   -1.5530    4.3810 c3        1 MOL     -0.290759
     89 C30         0.0560    0.1290    3.6200 c3        1 MOL     -0.340623
     90 C31         2.4410   -0.6290    5.3490 c3        1 MOL     -0.080488
     91 H36        -0.2750   -3.4200    2.9910 hn        1 MOL      0.234828
     92 H37         0.3110   -1.0080    1.2990 h1        1 MOL     -0.020370
     93 H38         1.9220   -0.1640    2.7160 hc        1 MOL      0.048847
     94 H39         2.3240   -2.3750    4.0790 hc        1 MOL      0.096443
     95 H40         0.9060   -2.1400    4.8930 hc        1 MOL      0.096443
     96 H41        -0.7260   -0.3540    4.2070 hc        1 MOL      0.133452
     97 H42         0.6390    0.8030    4.2520 hc        1 MOL      0.133452
     98 H43        -0.4380    0.5990    2.7670 hc        1 MOL      0.133452
     99 H44         3.2050   -0.0350    4.8490 hc        1 MOL      0.033558
    100 H45         1.7720    0.1370    5.7540 hc        1 MOL      0.033558
    101 H46         2.8360   -1.1470    6.2220 hc        1 MOL      0.033558
    102 N10         2.0580   -1.8770    0.0700 n         1 MOL     -0.123974
    103 C32         3.2020   -2.2430   -0.7430 c3        1 MOL      0.038010
    104 C33         4.5250   -1.5620   -0.3140 c         1 MOL      0.367298
    105 O16         4.4130   -0.6850    0.5090 o         1 MOL     -0.380827
    106 C34         2.9820   -1.9590   -2.2090 c3        1 MOL     -0.259730
    107 C35         3.7720   -2.8330   -3.1920 c         1 MOL      0.724506
    108 O17         4.6070   -3.6820   -2.8020 o         1 MOL     -0.705408
    109 O18         3.5950   -2.6540   -4.4130 o         1 MOL     -0.705408
    110 H47         1.6640   -0.9680   -0.1330 hn        1 MOL      0.405169
    111 H48         3.2180   -3.3390   -0.7790 h1        1 MOL      0.052031
    112 H49         3.3340   -0.9440   -2.4020 hc        1 MOL      0.041592
    113 H50         1.9120   -1.9660   -2.3900 hc        1 MOL      0.041592
    114 N11         5.6870   -1.8940   -0.8900 n         1 MOL     -0.437920
    115 C36         6.9700   -1.3250   -0.4610 c3        1 MOL      0.213133
    116 C37         7.0730    0.1910   -0.7180 c         1 MOL      0.434356
    117 O19         7.5270    0.8910    0.1740 o         1 MOL     -0.565310
    118 C38         8.1270   -2.0660   -1.0460 c3        1 MOL     -0.233687
    119 C39         9.4580   -1.5630   -0.6440 ca        1 MOL      0.207887
    120 C40        10.0320   -1.8430    0.5800 ca        1 MOL     -0.282973
    121 C41        10.2150   -0.7880   -1.5430 ca        1 MOL     -0.282973
    122 C42        11.3220   -1.4530    0.9910 ca        1 MOL      0.043041
    123 C43        11.5030   -0.4040   -1.1460 ca        1 MOL      0.043041
    124 C44        12.1490   -0.7780    0.0230 ca        1 MOL     -0.289916
    125 H51         5.6320   -2.6660   -1.5380 hn        1 MOL      0.239309
    126 H52         7.0010   -1.4950    0.6150 h1        1 MOL      0.062582
    127 H53         8.0020   -2.0560   -2.1290 hc        1 MOL      0.089451
    128 H54         8.1420   -3.1270   -0.8180 hc        1 MOL      0.089451
    129 H55         9.4900   -2.4270    1.3200 ha        1 MOL      0.128797
    130 H56         9.8010   -0.4870   -2.4940 ha        1 MOL      0.128797
    131 H57        11.7830   -1.7890    1.8980 ha        1 MOL      0.065959
    132 H58        12.1340    0.2000   -1.7860 ha        1 MOL      0.065959
    133 H59        13.1420   -0.4350    0.2470 ha        1 MOL      0.143110
    134 N12         6.5410    0.8360   -1.7460 n         1 MOL     -0.009242
    135 C45         6.4040    2.3230   -1.6840 c3        1 MOL      0.035906
    136 C46         5.5130    2.9520   -0.6070 c         1 MOL      0.289285
    137 O20         5.5810    4.1170   -0.3050 o         1 MOL     -0.496250
    138 C47         5.9480    2.7750   -3.1270 c3        1 MOL     -0.163909
    139 C48         6.6990    1.6740   -3.9700 c3        1 MOL     -0.021762
    140 C49         6.4910    0.4010   -3.1270 c3        1 MOL     -0.083662
    141 H60         7.4570    2.5940   -1.5590 h1        1 MOL      0.061186
    142 H61         4.8710    2.7640   -3.2900 hc        1 MOL      0.078880
    143 H62         6.3760    3.7460   -3.3550 hc        1 MOL      0.078880
    144 H63         6.3290    1.5100   -4.9860 hc        1 MOL      0.025957
    145 H64         7.7710    1.8840   -4.0000 hc        1 MOL      0.025957
    146 H65         5.5290   -0.0430   -3.3580 h1        1 MOL      0.062988
    147 H66         7.3110   -0.2920   -3.2850 h1        1 MOL      0.062988
    148 N13         4.5640    2.1590   -0.1000 n         1 MOL     -0.070388
    149 C50         3.6860    2.6260    1.0280 c3        1 MOL     -0.199318
    150 C51         4.3380    2.3970    2.3850 c         1 MOL      0.547979
    151 O21         4.0140    3.1580    3.3610 o         1 MOL     -0.587112
    152 C52         2.3540    1.8290    1.0470 c3        1 MOL      0.236132
    153 C53         1.4810    2.3000   -0.1840 c3        1 MOL     -0.068991
    154 C54         0.3540    1.3490   -0.4960 c         1 MOL      0.850644
    155 O22        -0.7960    1.7010   -0.3420 o         1 MOL     -0.823848
    156 O23         0.5150    0.1940   -1.0180 o         1 MOL     -0.823848
    157 H67         4.3860    1.2250   -0.4220 hn        1 MOL      0.126740
    158 H68         3.3980    3.6700    0.9170 h1        1 MOL      0.111800
    159 H69         1.7510    1.9160    1.9470 hc        1 MOL      0.000407
    160 H70         2.5030    0.7620    0.8910 hc        1 MOL      0.000407
    161 H71         2.1420    2.2390   -1.0480 hc        1 MOL     -0.028556
    162 H72         1.1180    3.3180   -0.0470 hc        1 MOL     -0.028556
    163 N14         5.1530    1.3360    2.3980 n         1 MOL     -0.224596
    164 C55         5.8670    0.9010    3.6230 c3        1 MOL     -0.143257
    165 H73         5.1760    0.3690    4.2760 h1        1 MOL      0.068482
    166 H74         6.6900    0.2390    3.3490 h1        1 MOL      0.068482
    167 H75         6.2610    1.7720    4.1440 h1        1 MOL      0.068482
    168 H76         5.1100    0.6560    1.6520 hn        1 MOL      0.162671
    169 Ca1        -2.0940   -0.4100   -1.0350 Ca        1 MOL      1.791658
    170 O24        -0.9980   -2.8070   -1.1580 oh        1 MOL     -0.890858
    171 H77        -1.3740   -3.5460   -0.6880 ho        1 MOL      0.413386
    172 H78        -0.5820   -3.1990   -1.9290 ho        1 MOL      0.413386
    173 O25        -1.2370   -0.8970   -3.6870 oh        1 MOL     -0.890858
    174 H79        -1.6820   -0.1820   -4.1350 ho        1 MOL      0.413386
    175 H80        -0.4160   -1.0130   -4.1720 ho        1 MOL      0.413386
@<TRIPOS>BOND
     1    1    2 1   
     2    1    4 1   
     3    1    5 1   
     4    1    6 1   
     5    2    3 2   
     6    2    7 1   
     7    7    8 1   
     8    7   15 1   
     9    8    9 1   
    10    8   11 1   
    11    8   16 1   
    12    9   10 2   
    13    9   19 1   
    14   11   12 1   
    15   11   17 1   
    16   11   18 1   
    17   12   13 1   
    18   12   14 1   
    19   19   20 1   
    20   19   24 1   
    21   20   21 1   
    22   20   23 1   
    23   20   25 1   
    24   21   22 2   
    25   21   29 1   
    26   23   26 1   
    27   23   27 1   
    28   23   28 1   
    29   29   30 1   
    30   29   37 1   
    31   30   31 1   
    32   30   33 1   
    33   30   38 1   
    34   31   32 2   
    35   31   41 1   
    36   33   34 1   
    37   33   39 1   
    38   33   40 1   
    39   34   35 1   
    40   34   36 1   
    41   41   42 1   
    42   41   45 1   
    43   42   43 1   
    44   42   46 1   
    45   42   47 1   
    46   43   44 2   
    47   43   48 1   
    48   48   49 1   
    49   48   56 1   
    50   49   50 1   
    51   49   52 1   
    52   49   57 1   
    53   50   51 2   
    54   50   62 1   
    55   52   53 1   
    56   52   58 1   
    57   52   59 1   
    58   53   54 1   
    59   53   55 2   
    60   54   60 1   
    61   54   61 1   
    62   62   63 1   
    63   62   66 1   
    64   63   64 1   
    65   63   67 1   
    66   63   68 1   
    67   64   65 2   
    68   64   69 1   
    69   69   70 1   
    70   69   76 1   
    71   70   71 1   
    72   70   73 1   
    73   70   77 1   
    74   71   72 2   
    75   71   83 1   
    76   73   74 1   
    77   73   75 1   
    78   73   78 1   
    79   74   80 1   
    80   74   81 1   
    81   74   82 1   
    82   75   79 1   
    83   83   84 1   
    84   83   91 1   
    85   84   85 1   
    86   84   87 1   
    87   84   92 1   
    88   85   86 2   
    89   85  102 1   
    90   87   88 1   
    91   87   89 1   
    92   87   93 1   
    93   88   90 1   
    94   88   94 1   
    95   88   95 1   
    96   89   96 1   
    97   89   97 1   
    98   89   98 1   
    99   90   99 1   
   100   90  100 1   
   101   90  101 1   
   102  102  103 1   
   103  102  110 1   
   104  103  104 1   
   105  103  106 1   
   106  103  111 1   
   107  104  105 2   
   108  104  114 1   
   109  106  107 1   
   110  106  112 1   
   111  106  113 1   
   112  107  108 1   
   113  107  109 1   
   114  114  115 1   
   115  114  125 1   
   116  115  116 1   
   117  115  118 1   
   118  115  126 1   
   119  116  117 2   
   120  116  134 1   
   121  118  119 1   
   122  118  127 1   
   123  118  128 1   
   124  119  120 ar  
   125  119  121 ar  
   126  120  122 ar  
   127  120  129 1   
   128  121  123 ar  
   129  121  130 1   
   130  122  124 ar  
   131  122  131 1   
   132  123  124 ar  
   133  123  132 1   
   134  124  133 1   
   135  134  135 1   
   136  134  140 1   
   137  135  136 1   
   138  135  138 1   
   139  135  141 1   
   140  136  137 2   
   141  136  148 1   
   142  138  139 1   
   143  138  142 1   
   144  138  143 1   
   145  139  140 1   
   146  139  144 1   
   147  139  145 1   
   148  140  146 1   
   149  140  147 1   
   150  148  149 1   
   151  148  157 1   
   152  149  150 1   
   153  149  152 1   
   154  149  158 1   
   155  150  151 2   
   156  150  163 1   
   157  152  153 1   
   158  152  159 1   
   159  152  160 1   
   160  153  154 1   
   161  153  161 1   
   162  153  162 1   
   163  154  155 1   
   164  154  156 1   
   165  163  164 1   
   166  163  168 1   
   167  164  165 1   
   168  164  166 1   
   169  164  167 1   
   170  170  171 1   
   171  170  172 1   
   172  173  174 1   
   173  173  175 1   
@<TRIPOS>SUBSTRUCTURE
     1 MOL         1 TEMP              0 ****  ****    0 ROOT
