@<TRIPOS>MOLECULE
MOL
  179   176     1     0     0
SMALL
resp


@<TRIPOS>ATOM
      1 C1          2.3220    3.4880    4.0580 c3        1 MOL     -0.443458
      2 C2          1.3080    3.2090    2.8850 c         1 MOL      0.518466
      3 O1          1.7290    3.3700    1.7110 o         1 MOL     -0.553891
      4 H1          3.1140    2.7380    4.0380 hc        1 MOL      0.130354
      5 H2          2.7580    4.4790    3.9340 hc        1 MOL      0.130354
      6 H3          1.7980    3.4370    5.0120 hc        1 MOL      0.130354
      7 N1          0.0150    2.9010    3.0740 n         1 MOL     -0.566102
      8 C3         -1.0280    2.7060    1.9940 c3        1 MOL     -0.024800
      9 C4         -1.6900    4.0440    1.7370 c         1 MOL      0.781279
     10 O2         -2.7270    4.2820    2.2080 o         1 MOL     -0.526371
     11 C5         -2.1010    1.6640    2.5270 c3        1 MOL     -0.101401
     12 C6         -3.2010    1.1840    1.6620 c         1 MOL      0.505282
     13 O3         -4.3600    0.9250    2.1470 o         1 MOL     -0.587330
     14 O4         -2.9500    1.0520    0.4430 o         1 MOL     -0.587330
     15 H4         -0.3260    2.6880    4.0020 hn        1 MOL      0.345788
     16 H5         -0.6150    2.4060    1.0290 h1        1 MOL      0.066914
     17 H6         -2.4880    1.9790    3.4930 hc        1 MOL      0.045144
     18 H7         -1.5140    0.7700    2.7360 hc        1 MOL      0.045144
     19 N2         -0.9660    4.9070    1.0750 n         1 MOL     -0.638666
     20 C7         -1.3440    6.2150    0.5650 c3        1 MOL     -0.038420
     21 C8         -2.3490    6.1090   -0.5940 c         1 MOL      0.387590
     22 O5         -3.2430    6.9530   -0.7480 o         1 MOL     -0.526979
     23 C9         -0.1270    7.0430    0.0990 c3        1 MOL      0.081644
     24 C10         0.9590    7.2730    1.1120 c3        1 MOL     -0.148501
     25 C11         1.9560    8.2680    0.4200 c3        1 MOL      0.016477
     26 C12         3.1840    8.5740    1.2770 c3        1 MOL     -0.193682
     27 N3          3.9390    7.3240    1.6370 n4        1 MOL     -0.222820
     28 H8          0.0100    4.6720    0.9510 hn        1 MOL      0.403224
     29 H9         -1.8450    6.7210    1.3930 h1        1 MOL      0.109620
     30 H10        -0.4300    7.9750   -0.3780 hc        1 MOL      0.003048
     31 H11         0.3120    6.4630   -0.7180 hc        1 MOL      0.003048
     32 H12         1.4690    6.3330    1.3280 hc        1 MOL      0.062159
     33 H13         0.5500    7.8640    1.9210 hc        1 MOL      0.062159
     34 H14         1.3340    9.1450    0.1860 hc        1 MOL      0.071771
     35 H15         2.3460    7.8120   -0.4910 hc        1 MOL      0.071771
     36 H16         2.9400    8.9800    2.2600 hx        1 MOL      0.135555
     37 H17         3.7730    9.1630    0.5730 hx        1 MOL      0.135555
     38 H18         3.3950    6.5990    2.0850 hn        1 MOL      0.303767
     39 H19         4.3670    6.9110    0.8190 hn        1 MOL      0.303767
     40 H20         4.6770    7.6220    2.2600 hn        1 MOL      0.303767
     41 N4         -2.2930    5.0740   -1.3980 n         1 MOL     -0.220857
     42 C13        -3.3130    4.8700   -2.4240 c3        1 MOL      0.078082
     43 C14        -4.5960    4.2100   -1.8090 c         1 MOL      0.348607
     44 O6         -5.7110    4.3530   -2.3640 o         1 MOL     -0.506542
     45 C15        -2.8000    3.9830   -3.5670 c3        1 MOL     -0.367148
     46 C16        -2.2900    2.6380   -3.0400 c         1 MOL      0.911770
     47 O7         -1.2490    2.4730   -2.4090 o         1 MOL     -0.816651
     48 O8         -2.8870    1.5730   -3.0960 o         1 MOL     -0.816651
     49 H21        -1.4830    4.4730   -1.4060 hn        1 MOL      0.229889
     50 H22        -3.5920    5.8190   -2.8900 h1        1 MOL      0.101164
     51 H23        -1.8680    4.4710   -3.8710 hc        1 MOL      0.088221
     52 H24        -3.4870    3.8100   -4.4010 hc        1 MOL      0.088221
     53 N5         -4.5270    3.5750   -0.6150 n         1 MOL      0.022049
     54 C17        -5.6470    3.3350    0.2940 c3        1 MOL     -0.214967
     55 C18        -6.4800    2.1880   -0.2840 c         1 MOL      0.576332
     56 O9         -7.6820    2.3220   -0.5160 o         1 MOL     -0.571151
     57 H25        -3.5860    3.3860   -0.2900 hn        1 MOL      0.086306
     58 H26        -6.2580    4.2350    0.3530 h1        1 MOL      0.113350
     59 H27        -5.3870    3.0670    1.3230 h1        1 MOL      0.113350
     60 N6         -5.9110    0.9690   -0.3970 n         1 MOL     -0.116975
     61 C19        -6.5390   -0.2450   -0.8030 c3        1 MOL     -0.053172
     62 C20        -6.4480   -1.4410    0.1480 c         1 MOL      0.230624
     63 O10        -6.8240   -2.5960   -0.2430 o         1 MOL     -0.456579
     64 C21        -6.1130   -0.7130   -2.2640 c3        1 MOL     -0.092866
     65 C22        -4.7100   -1.3490   -2.3580 c         1 MOL      0.489348
     66 N7         -4.5400   -2.1310   -3.3050 n         1 MOL     -0.613625
     67 O11        -3.8370   -1.1690   -1.4750 o         1 MOL     -0.570338
     68 H28        -4.9780    0.8100   -0.0310 hn        1 MOL     -0.091446
     69 H29        -7.6200   -0.0740   -0.7940 h1        1 MOL      0.119243
     70 H30        -6.0620    0.1540   -2.9160 hc        1 MOL      0.064308
     71 H31        -6.8250   -1.4560   -2.6320 hc        1 MOL      0.064308
     72 H32        -5.2580   -2.2630   -4.0090 hn        1 MOL      0.326786
     73 H33        -3.6410   -2.5640   -3.4300 hn        1 MOL      0.326786
     74 N8         -5.9310   -1.2110    1.3450 n         1 MOL      0.002384
     75 C23        -5.8370   -2.1750    2.4290 c3        1 MOL     -0.483770
     76 C24        -4.6320   -3.0660    2.4110 c         1 MOL      0.936188
     77 O12        -4.5090   -3.8610    3.2720 o         1 MOL     -0.627932
     78 H34        -5.4350   -0.3290    1.4760 hn        1 MOL      0.189953
     79 H35        -6.7120   -2.8110    2.4180 h1        1 MOL      0.161790
     80 H36        -5.8180   -1.6160    3.3600 h1        1 MOL      0.161790
     81 N9         -3.6560   -2.8800    1.5380 n         1 MOL     -0.842986
     82 C25        -2.3950   -3.6590    1.3270 c3        1 MOL      0.248289
     83 C26        -1.2090   -2.6770    1.0920 c         1 MOL      0.702354
     84 O13        -1.3340   -1.7290    0.3820 o         1 MOL     -0.707091
     85 C27        -2.5850   -4.4890    0.0650 c3        1 MOL     -0.124220
     86 C28        -3.5530   -5.6290    0.3330 ca        1 MOL      0.063825
     87 C29        -4.9240   -5.3400    0.3480 ca        1 MOL     -0.158359
     88 C30        -3.0420   -6.9560    0.4000 ca        1 MOL     -0.158359
     89 C31        -5.8290   -6.3880    0.4980 ca        1 MOL     -0.287622
     90 C32        -4.0210   -7.9730    0.5620 ca        1 MOL     -0.287622
     91 C33        -5.4080   -7.6950    0.7100 ca        1 MOL      0.395519
     92 O14        -6.3620   -8.6530    0.8670 oh        1 MOL     -0.481969
     93 H37        -3.8640   -2.2940    0.7340 hn        1 MOL      0.577780
     94 H38        -2.1630   -4.3340    2.1500 h1        1 MOL      0.048084
     95 H39        -1.6300   -4.9180   -0.2230 hc        1 MOL      0.027811
     96 H40        -2.9410   -3.8600   -0.7530 hc        1 MOL      0.027811
     97 H41        -5.2930   -4.3570    0.0770 ha        1 MOL      0.120487
     98 H42        -1.9880   -7.1370    0.2110 ha        1 MOL      0.120487
     99 H43        -6.8640   -6.1250    0.3070 ha        1 MOL      0.135124
    100 H44        -3.8370   -9.0280    0.6320 ha        1 MOL      0.135124
    101 H45        -6.0600   -9.5640    0.9150 ho        1 MOL      0.347291
    102 N10        -0.1080   -3.1650    1.5660 n         1 MOL     -0.677939
    103 C34         1.1690   -2.6050    1.1420 c3        1 MOL      0.320064
    104 C35         2.0660   -3.6930    0.4050 c         1 MOL      0.608418
    105 O15         1.7580   -4.8640    0.4380 o         1 MOL     -0.579177
    106 C36         1.9760   -1.9000    2.3370 c3        1 MOL      0.040098
    107 C37         2.1500   -2.8000    3.5850 c3        1 MOL     -0.028399
    108 C38         1.1580   -0.6070    2.6840 c3        1 MOL     -0.418271
    109 C39         3.0820   -2.1290    4.5720 c3        1 MOL     -0.123459
    110 H46        -0.1080   -4.0410    2.0580 hn        1 MOL      0.298860
    111 H47         0.9550   -1.8470    0.3920 h1        1 MOL     -0.050371
    112 H48         3.0080   -1.7640    1.9970 hc        1 MOL     -0.055089
    113 H49         2.5620   -3.6990    3.1270 hc        1 MOL      0.028108
    114 H50         1.1880   -3.0590    4.0250 hc        1 MOL      0.028108
    115 H51         1.5930   -0.0720    3.5300 hc        1 MOL      0.148481
    116 H52         1.1410    0.0920    1.8460 hc        1 MOL      0.148481
    117 H53         0.1710   -0.8720    3.0420 hc        1 MOL      0.148481
    118 H54         4.1440   -2.0460    4.3610 hc        1 MOL      0.031670
    119 H55         2.6510   -1.1760    4.8930 hc        1 MOL      0.031670
    120 H56         3.0000   -2.7950    5.4260 hc        1 MOL      0.031670
    121 N11         3.1960   -3.3050   -0.1590 n         1 MOL     -0.409798
    122 C40         4.3450   -4.0730   -0.7820 c3        1 MOL      0.124186
    123 C41         5.6570   -3.5350   -0.2910 c         1 MOL      0.413094
    124 O16         5.6970   -2.5900    0.4870 o         1 MOL     -0.424610
    125 C42         4.2220   -3.8760   -2.2440 c3        1 MOL     -0.282238
    126 O17         4.5130   -2.5570   -2.6370 oh        1 MOL     -0.467151
    127 H57         3.4340   -2.3240   -0.1820 hn        1 MOL      0.209281
    128 H58         4.3430   -5.1410   -0.5600 h1        1 MOL      0.083104
    129 H59         3.2350   -4.1930   -2.5750 h1        1 MOL      0.144391
    130 H60         4.8640   -4.6040   -2.7360 h1        1 MOL      0.144391
    131 H61         4.0150   -2.3250   -3.4190 ho        1 MOL      0.410464
    132 N12         6.8400   -4.0310   -0.7100 n         1 MOL     -0.377112
    133 C43         8.2470   -3.6710   -0.3670 c3        1 MOL      0.122521
    134 C44         8.5830   -2.2000   -0.7950 c         1 MOL      0.449397
    135 O18         9.4110   -1.5130   -0.1970 o         1 MOL     -0.509844
    136 C45         9.1160   -4.7470   -0.9610 c3        1 MOL     -0.483587
    137 H62         6.8350   -4.8290   -1.3340 hn        1 MOL      0.248912
    138 H63         8.3390   -3.7370    0.7150 h1        1 MOL      0.105260
    139 H64        10.1520   -4.4230   -0.8740 hc        1 MOL      0.146736
    140 H65         8.8840   -5.5750   -0.2970 hc        1 MOL      0.146736
    141 H66         8.9570   -5.0280   -2.0050 hc        1 MOL      0.146736
    142 N13         7.8560   -1.6930   -1.8470 n         1 MOL     -0.285428
    143 C46         7.8790   -0.3070   -2.3520 c3        1 MOL      0.084207
    144 C47         7.1530    0.7610   -1.6260 c         1 MOL      0.408005
    145 O19         7.7030    1.7610   -1.2260 o         1 MOL     -0.525451
    146 C48         7.3900   -0.3430   -3.7710 c3        1 MOL     -0.223329
    147 H67         7.2750   -2.3680   -2.3250 hn        1 MOL      0.205147
    148 H68         8.9400   -0.0570   -2.3620 h1        1 MOL      0.088466
    149 H69         7.5020    0.6530   -4.1890 hc        1 MOL      0.054257
    150 H70         8.0440   -1.1020   -4.2150 hc        1 MOL      0.054257
    151 H71         6.3870   -0.7720   -3.8520 hc        1 MOL      0.054257
    152 N14         6.0140    0.3350   -1.1270 n         1 MOL     -0.071813
    153 C49         5.2400    1.1750   -0.2490 c3        1 MOL     -0.325426
    154 C50         5.9250    1.3360    1.1530 c         1 MOL      0.460946
    155 O20         5.6140    2.2020    2.0180 o         1 MOL     -0.582326
    156 C51         3.7530    0.7890   -0.0960 c3        1 MOL      0.179416
    157 C52         3.0120    0.9090   -1.4010 c3        1 MOL     -0.189698
    158 C53         1.6020    0.3700   -1.3330 c         1 MOL      0.922690
    159 O21         0.6860    1.1100   -0.8880 o         1 MOL     -0.789270
    160 O22         1.2520   -0.7860   -1.7720 o         1 MOL     -0.789270
    161 H72         5.7270   -0.6110   -1.3190 hn        1 MOL      0.189383
    162 H73         5.2390    2.2040   -0.6130 h1        1 MOL      0.157433
    163 H74         3.1920    1.3050    0.6900 hc        1 MOL      0.045382
    164 H75         3.6860   -0.2690    0.1600 hc        1 MOL      0.045382
    165 H76         3.5320    0.3880   -2.2070 hc        1 MOL     -0.010231
    166 H77         2.9430    1.9870   -1.4920 hc        1 MOL     -0.010231
    167 N15         6.7450    0.3380    1.5790 n         1 MOL     -0.058859
    168 C54         7.6570    0.3850    2.7350 c3        1 MOL     -0.243122
    169 H78         8.3940   -0.4130    2.6480 h1        1 MOL      0.103055
    170 H79         8.1660    1.3490    2.7580 h1        1 MOL      0.103055
    171 H80         7.0870    0.2530    3.6540 h1        1 MOL      0.103055
    172 H81         6.7100   -0.5500    1.0920 hn        1 MOL      0.106417
    173 Ca1        -1.5510   -0.0240   -1.6420 Ca        1 MOL      1.785507
    174 O23        -0.9030   -0.0750   -4.3540 oh        1 MOL     -0.787776
    175 H82        -0.5300    0.1730   -5.1980 ho        1 MOL      0.387806
    176 H83        -1.6820   -0.5830   -4.5860 ho        1 MOL      0.387806
    177 O24        -1.4610   -2.6370   -2.7150 oh        1 MOL     -0.787776
    178 H84        -2.0340   -3.4030   -2.6460 ho        1 MOL      0.387806
    179 H85        -0.5810   -2.9880   -2.7100 ho        1 MOL      0.387806
@<TRIPOS>BOND
     1    1    2 1   
     2    1    4 1   
     3    1    5 1   
     4    1    6 1   
     5    2    3 2   
     6    2    7 1   
     7    7    8 1   
     8    7   15 1   
     9    8    9 1   
    10    8   11 1   
    11    8   16 1   
    12    9   10 2   
    13    9   19 1   
    14   11   12 1   
    15   11   17 1   
    16   11   18 1   
    17   12   13 1   
    18   12   14 1   
    19   19   20 1   
    20   19   28 1   
    21   20   21 1   
    22   20   23 1   
    23   20   29 1   
    24   21   22 2   
    25   21   41 1   
    26   23   24 1   
    27   23   30 1   
    28   23   31 1   
    29   24   25 1   
    30   24   32 1   
    31   24   33 1   
    32   25   26 1   
    33   25   34 1   
    34   25   35 1   
    35   26   27 1   
    36   26   36 1   
    37   26   37 1   
    38   27   38 1   
    39   27   39 1   
    40   27   40 1   
    41   41   42 1   
    42   41   49 1   
    43   42   43 1   
    44   42   45 1   
    45   42   50 1   
    46   43   44 2   
    47   43   53 1   
    48   45   46 1   
    49   45   51 1   
    50   45   52 1   
    51   46   47 1   
    52   46   48 1   
    53   53   54 1   
    54   53   57 1   
    55   54   55 1   
    56   54   58 1   
    57   54   59 1   
    58   55   56 2   
    59   55   60 1   
    60   60   61 1   
    61   60   68 1   
    62   61   62 1   
    63   61   64 1   
    64   61   69 1   
    65   62   63 2   
    66   62   74 1   
    67   64   65 1   
    68   64   70 1   
    69   64   71 1   
    70   65   66 1   
    71   65   67 2   
    72   66   72 1   
    73   66   73 1   
    74   74   75 1   
    75   74   78 1   
    76   75   76 1   
    77   75   79 1   
    78   75   80 1   
    79   76   77 2   
    80   76   81 1   
    81   81   82 1   
    82   81   93 1   
    83   82   83 1   
    84   82   85 1   
    85   82   94 1   
    86   83   84 2   
    87   83  102 1   
    88   85   86 1   
    89   85   95 1   
    90   85   96 1   
    91   86   87 ar  
    92   86   88 ar  
    93   87   89 ar  
    94   87   97 1   
    95   88   90 ar  
    96   88   98 1   
    97   89   91 ar  
    98   89   99 1   
    99   90   91 ar  
   100   90  100 1   
   101   91   92 1   
   102   92  101 1   
   103  102  103 1   
   104  102  110 1   
   105  103  104 1   
   106  103  106 1   
   107  103  111 1   
   108  104  105 2   
   109  104  121 1   
   110  106  107 1   
   111  106  108 1   
   112  106  112 1   
   113  107  109 1   
   114  107  113 1   
   115  107  114 1   
   116  108  115 1   
   117  108  116 1   
   118  108  117 1   
   119  109  118 1   
   120  109  119 1   
   121  109  120 1   
   122  121  122 1   
   123  121  127 1   
   124  122  123 1   
   125  122  125 1   
   126  122  128 1   
   127  123  124 2   
   128  123  132 1   
   129  125  126 1   
   130  125  129 1   
   131  125  130 1   
   132  126  131 1   
   133  132  133 1   
   134  132  137 1   
   135  133  134 1   
   136  133  136 1   
   137  133  138 1   
   138  134  135 2   
   139  134  142 1   
   140  136  139 1   
   141  136  140 1   
   142  136  141 1   
   143  142  143 1   
   144  142  147 1   
   145  143  144 1   
   146  143  146 1   
   147  143  148 1   
   148  144  145 2   
   149  144  152 1   
   150  146  149 1   
   151  146  150 1   
   152  146  151 1   
   153  152  153 1   
   154  152  161 1   
   155  153  154 1   
   156  153  156 1   
   157  153  162 1   
   158  154  155 2   
   159  154  167 1   
   160  156  157 1   
   161  156  163 1   
   162  156  164 1   
   163  157  158 1   
   164  157  165 1   
   165  157  166 1   
   166  158  159 1   
   167  158  160 1   
   168  167  168 1   
   169  167  172 1   
   170  168  169 1   
   171  168  170 1   
   172  168  171 1   
   173  174  175 1   
   174  174  176 1   
   175  177  178 1   
   176  177  179 1   
@<TRIPOS>SUBSTRUCTURE
     1 MOL         1 TEMP              0 ****  ****    0 ROOT
