@<TRIPOS>MOLECULE
MOL
  189   185     1     0     0
SMALL
resp


@<TRIPOS>ATOM
      1 C1         -0.0960   -2.7890    6.0970 c3        1 MOL     -0.523201
      2 C2          0.5660   -2.6260    4.7250 c         1 MOL      0.786453
      3 O1          0.4180   -1.5540    4.1090 o         1 MOL     -0.654231
      4 H1         -0.8150   -1.9850    6.2510 hc        1 MOL      0.133506
      5 H2         -0.6110   -3.7480    6.1420 hc        1 MOL      0.133506
      6 H3          0.6660   -2.7480    6.8760 hc        1 MOL      0.133506
      7 N1          1.1660   -3.7080    4.2070 n         1 MOL     -0.682647
      8 C3          1.9250   -3.6070    2.9790 c3        1 MOL      0.417290
      9 C4          1.7610   -4.7690    1.9720 c         1 MOL      0.423230
     10 O2          1.4720   -5.9050    2.3700 o         1 MOL     -0.594350
     11 C5          3.4080   -3.3860    3.3390 c3        1 MOL     -0.368015
     12 C6          4.2790   -2.7100    2.3260 c         1 MOL      0.831471
     13 O3          5.4100   -2.3940    2.6570 o         1 MOL     -0.706985
     14 O4          3.9050   -2.3940    1.1830 o         1 MOL     -0.706985
     15 H4          1.2650   -4.5110    4.8280 hn        1 MOL      0.326952
     16 H5          1.5730   -2.7300    2.4380 h1        1 MOL      0.033640
     17 H6          3.8780   -4.3330    3.6050 hc        1 MOL      0.057080
     18 H7          3.4080   -2.6790    4.1600 hc        1 MOL      0.057080
     19 N2          1.9510   -4.5020    0.6800 n         1 MOL     -0.308837
     20 C7          1.8190   -5.4470   -0.4480 c3        1 MOL     -0.003719
     21 C8          3.0580   -5.3100   -1.4150 c         1 MOL      0.399733
     22 O5          3.3020   -6.2510   -2.1750 o         1 MOL     -0.575863
     23 C9          0.4780   -5.1310   -1.2060 c3        1 MOL      0.355262
     24 C10        -0.7100   -5.3910   -0.3670 c3        1 MOL     -0.045472
     25 C11         0.3570   -5.8390   -2.5310 c3        1 MOL     -0.400491
     26 C12        -1.9600   -4.7040   -0.8820 c3        1 MOL     -0.144617
     27 H8          1.9400   -3.5380    0.3810 hn        1 MOL      0.326076
     28 H9          1.7160   -6.4800   -0.1000 h1        1 MOL      0.067623
     29 H10         0.4640   -4.0670   -1.4320 hc        1 MOL     -0.034597
     30 H11        -0.6540   -4.9920    0.6390 hc        1 MOL     -0.010144
     31 H12        -0.7450   -6.4710   -0.2730 hc        1 MOL     -0.010144
     32 H13         1.2260   -5.6370   -3.1630 hc        1 MOL      0.081636
     33 H14         0.4470   -6.9050   -2.3700 hc        1 MOL      0.081636
     34 H15        -0.5130   -5.5670   -3.1290 hc        1 MOL      0.081636
     35 H16        -2.6890   -4.8480   -0.0790 hc        1 MOL      0.044663
     36 H17        -1.8270   -3.6480   -1.1070 hc        1 MOL      0.044663
     37 H18        -2.3580   -5.2040   -1.7670 hc        1 MOL      0.044663
     38 N3          3.7210   -4.1770   -1.4560 n         1 MOL     -0.154615
     39 C13         4.6990   -3.9820   -2.4660 c3        1 MOL     -0.083137
     40 C14         5.9530   -3.1780   -2.0120 c         1 MOL      0.383283
     41 O6          6.7580   -2.8440   -2.8290 o         1 MOL     -0.517812
     42 C15         3.9710   -3.1310   -3.4620 c3        1 MOL     -0.098064
     43 C16         3.4160   -1.8880   -2.9590 c         1 MOL      0.765169
     44 O7          3.6540   -1.4600   -1.8060 o         1 MOL     -0.722997
     45 O8          2.6850   -1.2590   -3.7760 o         1 MOL     -0.722997
     46 H19         3.5360   -3.5260   -0.7070 hn        1 MOL      0.003246
     47 H20         4.9930   -4.8500   -3.0620 h1        1 MOL      0.129176
     48 H21         3.1340   -3.7520   -3.7740 hc        1 MOL      0.034181
     49 H22         4.5890   -2.8890   -4.3280 hc        1 MOL      0.034181
     50 N4          6.0990   -2.7190   -0.7250 n         1 MOL     -0.163769
     51 C17         7.2340   -2.0800   -0.1130 c3        1 MOL     -0.188348
     52 C18         7.6870   -0.7800   -0.8020 c         1 MOL      0.511588
     53 O9          8.8490   -0.4120   -0.6770 o         1 MOL     -0.584605
     54 H23         5.3350   -2.8570   -0.0690 hn        1 MOL      0.170422
     55 H24         8.0210   -2.8370   -0.1690 h1        1 MOL      0.084467
     56 H25         6.9410   -1.8980    0.9260 h1        1 MOL      0.084467
     57 N5          6.7860   -0.0410   -1.4350 n         1 MOL     -0.249567
     58 C19         7.0810    1.3510   -1.7790 c3        1 MOL     -0.023860
     59 C20         7.4740    2.3210   -0.6760 c         1 MOL      0.486372
     60 O10         8.3950    3.1180   -0.8240 o         1 MOL     -0.541637
     61 C21         5.9670    1.9600   -2.6600 c3        1 MOL     -0.417812
     62 C22         4.4820    1.9520   -2.0920 c         1 MOL      0.803225
     63 O11         4.2460    1.5280   -0.9720 o         1 MOL     -0.706783
     64 O12         3.6020    2.3060   -2.8730 o         1 MOL     -0.706783
     65 H26         5.8820   -0.4680   -1.5830 hn        1 MOL      0.292310
     66 H27         7.9580    1.2340   -2.4110 h1        1 MOL      0.083794
     67 H28         5.9170    1.4700   -3.6280 hc        1 MOL      0.109824
     68 H29         6.2360    3.0090   -2.7900 hc        1 MOL      0.109824
     69 N6          6.7490    2.1410    0.4590 n         1 MOL     -0.162043
     70 C23         6.6920    3.0950    1.6110 c3        1 MOL     -0.364556
     71 C24         5.6220    4.1830    1.4870 c         1 MOL      0.586062
     72 O13         5.8590    5.3340    1.9230 o         1 MOL     -0.608127
     73 H30         6.0230    1.4260    0.4850 hn        1 MOL      0.142867
     74 H31         7.6850    3.5310    1.4930 h1        1 MOL      0.136947
     75 H32         6.5310    2.5740    2.5480 h1        1 MOL      0.136947
     76 N7          4.5400    3.8830    0.8270 n         1 MOL     -0.217268
     77 C25         3.2380    4.5650    0.8700 c3        1 MOL     -0.100499
     78 C26         2.1490    3.5340    1.2860 c         1 MOL      0.336812
     79 O14         2.3120    2.3740    0.9450 o         1 MOL     -0.394035
     80 C27         2.8880    5.2390   -0.4450 c3        1 MOL      0.188225
     81 C28         3.9900    6.0970   -1.0600 c3        1 MOL     -0.293554
     82 C29         3.4910    7.2590   -1.9810 c         1 MOL      0.621205
     83 N8          3.0290    7.0010   -3.1850 n         1 MOL     -0.759203
     84 O15         3.3350    8.3930   -1.4820 o         1 MOL     -0.576197
     85 H33         4.5100    2.9290    0.4810 hn        1 MOL      0.253899
     86 H34         3.3070    5.3000    1.6770 h1        1 MOL      0.068708
     87 H35         2.0070    5.8690   -0.3520 hc        1 MOL     -0.005106
     88 H36         2.5620    4.5000   -1.1820 hc        1 MOL     -0.005106
     89 H37         4.6660    5.4110   -1.5740 hc        1 MOL      0.080603
     90 H38         4.5940    6.5300   -0.2680 hc        1 MOL      0.080603
     91 H39         3.1910    6.0610   -3.5090 hn        1 MOL      0.360539
     92 H40         2.5590    7.6960   -3.7420 hn        1 MOL      0.360539
     93 N9          0.9950    4.0170    1.7410 n         1 MOL     -0.319954
     94 C30        -0.2670    3.2520    1.9200 c3        1 MOL     -0.064162
     95 C31        -1.2750    3.4660    0.7880 c         1 MOL      0.382307
     96 O16        -1.8570    4.5720    0.6330 o         1 MOL     -0.550458
     97 C32        -0.8390    3.4290    3.3700 c3        1 MOL      0.261130
     98 C33        -2.1740    2.6630    3.4720 c3        1 MOL     -0.266373
     99 C34         0.1130    2.9100    4.4720 c3        1 MOL     -0.266373
    100 H41         0.9380    4.9970    1.9700 hn        1 MOL      0.251905
    101 H42         0.0160    2.2080    1.7950 h1        1 MOL      0.171506
    102 H43        -1.0730    4.4740    3.5940 hc        1 MOL     -0.029610
    103 H44        -2.5380    2.8240    4.4790 hc        1 MOL      0.053620
    104 H45        -2.8680    3.0660    2.7420 hc        1 MOL      0.053620
    105 H46        -2.0050    1.6040    3.2520 hc        1 MOL      0.053620
    106 H47         1.0260    3.4800    4.6660 hc        1 MOL      0.053620
    107 H48        -0.4180    2.8100    5.4190 hc        1 MOL      0.053620
    108 H49         0.2530    1.8520    4.2500 hc        1 MOL      0.053620
    109 N10        -1.5460    2.4080   -0.0160 n         1 MOL     -0.198272
    110 C35        -2.5610    2.3640   -1.0140 c3        1 MOL      0.175322
    111 C36        -4.0130    2.2140   -0.4510 c         1 MOL      0.368997
    112 O17        -4.0460    1.8380    0.7170 o         1 MOL     -0.359654
    113 C37        -2.1950    1.3020   -2.1110 c3        1 MOL     -0.158196
    114 C38        -2.9100    1.4620   -3.4270 c         1 MOL      0.705177
    115 N11        -2.5900    2.5300   -4.1500 n         1 MOL     -0.806480
    116 O18        -3.7830    0.7400   -3.8640 o         1 MOL     -0.543409
    117 H50        -1.0390    1.5590    0.1660 hn        1 MOL      0.184168
    118 H51        -2.5970    3.3240   -1.5330 h1        1 MOL     -0.015450
    119 H52        -2.3320    0.3500   -1.6050 hc        1 MOL      0.040163
    120 H53        -1.1670    1.6310   -2.2880 hc        1 MOL      0.040163
    121 H54        -1.9510    3.2580   -3.8640 hn        1 MOL      0.353105
    122 H55        -2.9290    2.6650   -5.0970 hn        1 MOL      0.353105
    123 N12        -5.1220    2.4360   -1.2220 n         1 MOL     -0.503515
    124 C39        -6.4060    2.0390   -0.6000 c3        1 MOL      0.129944
    125 C40        -6.4320    0.5290   -0.4050 c         1 MOL      0.909350
    126 O19        -6.9650    0.0910    0.6140 o         1 MOL     -0.626523
    127 C41        -7.5860    2.5210   -1.5080 c3        1 MOL     -0.118540
    128 C42        -8.9410    2.2150   -0.9520 ca        1 MOL      0.081569
    129 C43        -9.4180    2.8470    0.2360 ca        1 MOL     -0.273616
    130 C44        -9.6790    1.2470   -1.6190 ca        1 MOL     -0.273616
    131 C45       -10.6950    2.4350    0.8070 ca        1 MOL     -0.085089
    132 C46       -10.9140    0.8480   -1.1050 ca        1 MOL     -0.085089
    133 C47       -11.3800    1.4450    0.0770 ca        1 MOL      0.159820
    134 O20       -12.5430    0.9840    0.7560 oh        1 MOL     -0.545987
    135 H56        -5.0510    2.8730   -2.1320 hn        1 MOL      0.274721
    136 H57        -6.5590    2.4810    0.3870 h1        1 MOL      0.039891
    137 H58        -7.4800    2.0790   -2.4940 hc        1 MOL      0.054460
    138 H59        -7.5270    3.5990   -1.6900 hc        1 MOL      0.054460
    139 H60        -8.7380    3.5220    0.7390 ha        1 MOL      0.153893
    140 H61        -9.2470    0.8750   -2.5350 ha        1 MOL      0.153893
    141 H62       -11.0940    2.8000    1.7380 ha        1 MOL      0.123629
    142 H63       -11.5300    0.1300   -1.6120 ha        1 MOL      0.123629
    143 H64       -12.9240    0.2230    0.3130 ho        1 MOL      0.391569
    144 N13        -5.8150   -0.3100   -1.2170 n         1 MOL     -0.596254
    145 C48        -5.6600   -1.7580   -1.0290 c3        1 MOL     -0.009647
    146 C49        -4.8960   -2.2240    0.1620 c         1 MOL      0.298123
    147 O21        -4.8150   -3.3650    0.4640 o         1 MOL     -0.491756
    148 C50        -5.0060   -2.3560   -2.2140 c3        1 MOL      0.195553
    149 C51        -5.7060   -2.1610   -3.5790 c3        1 MOL     -0.169137
    150 C52        -7.0450   -2.9450   -3.7090 c         1 MOL      0.574946
    151 O22        -8.0840   -2.2630   -3.9860 o         1 MOL     -0.696237
    152 O23        -7.0300   -4.1770   -3.3480 o         1 MOL     -0.696237
    153 H65        -5.5120    0.0620   -2.1080 hn        1 MOL      0.249338
    154 H66        -6.6620   -2.1670   -0.9930 h1        1 MOL      0.151952
    155 H67        -4.8300   -3.4220   -2.0350 hc        1 MOL     -0.025472
    156 H68        -4.0170   -1.9200   -2.3560 hc        1 MOL     -0.025472
    157 H69        -5.0070   -2.3080   -4.4010 hc        1 MOL      0.012647
    158 H70        -6.0320   -1.1280   -3.6820 hc        1 MOL      0.012647
    159 N14        -4.3130   -1.2760    0.8790 n         1 MOL     -0.072433
    160 C53        -3.7630   -1.4980    2.1990 c3        1 MOL     -0.095005
    161 C54        -4.4160   -0.6610    3.2800 c         1 MOL      0.472892
    162 O24        -4.2380   -0.9760    4.4110 o         1 MOL     -0.573517
    163 C55        -2.2630   -1.0580    2.1460 c3        1 MOL     -0.087064
    164 C56        -1.4090   -1.8020    1.1540 c3        1 MOL     -0.287622
    165 C57        -0.0800   -1.1460    0.8100 c         1 MOL      0.922139
    166 O25         0.8200   -1.8540    0.3650 o         1 MOL     -0.831946
    167 O26         0.1740    0.0840    0.9330 o         1 MOL     -0.831946
    168 H71        -4.2510   -0.3200    0.5370 hn        1 MOL      0.125537
    169 H72        -3.8780   -2.5160    2.5740 h1        1 MOL      0.119433
    170 H73        -1.8760   -1.1630    3.1580 hc        1 MOL      0.107361
    171 H74        -2.2550   -0.0020    1.8530 hc        1 MOL      0.107361
    172 H75        -1.8790   -1.8150    0.1720 hc        1 MOL      0.109367
    173 H76        -1.1230   -2.7810    1.5340 hc        1 MOL      0.109367
    174 N15        -5.2910    0.3300    2.9840 n         1 MOL     -0.105832
    175 C58        -6.0580    1.0260    4.0390 c3        1 MOL     -0.150903
    176 H77        -5.7750    0.6290    5.0140 h1        1 MOL      0.063768
    177 H78        -5.8390    2.0930    4.0040 h1        1 MOL      0.063768
    178 H79        -7.1240    0.8680    3.8780 h1        1 MOL      0.063768
    179 H80        -5.3760    0.5830    2.0060 hn        1 MOL      0.046954
    180 Ca1         2.7420   -0.1450    0.2360 Ca        1 MOL      1.734765
    181 O27         2.3640    0.1100    2.9700 oh        1 MOL     -0.887688
    182 H81         2.9500    0.1180    3.7300 ho        1 MOL      0.422770
    183 H82         1.4970   -0.1040    3.3390 ho        1 MOL      0.422770
    184 O28         5.1090    0.1520    1.6780 oh        1 MOL     -0.887688
    185 H83         5.1300    0.3720    2.6050 ho        1 MOL      0.422770
    186 H84         5.5600   -0.6940    1.6250 ho        1 MOL      0.422770
    187 O29         1.4030    0.8530   -1.9960 oh        1 MOL     -0.887688
    188 H85         1.9830    1.5730   -2.2310 ho        1 MOL      0.422770
    189 H86         1.2950    0.3520   -2.8030 ho        1 MOL      0.422770
@<TRIPOS>BOND
     1    1    2 1   
     2    1    4 1   
     3    1    5 1   
     4    1    6 1   
     5    2    3 2   
     6    2    7 1   
     7    7    8 1   
     8    7   15 1   
     9    8    9 1   
    10    8   11 1   
    11    8   16 1   
    12    9   10 2   
    13    9   19 1   
    14   11   12 1   
    15   11   17 1   
    16   11   18 1   
    17   12   13 1   
    18   12   14 1   
    19   19   20 1   
    20   19   27 1   
    21   20   21 1   
    22   20   23 1   
    23   20   28 1   
    24   21   22 2   
    25   21   38 1   
    26   23   24 1   
    27   23   25 1   
    28   23   29 1   
    29   24   26 1   
    30   24   30 1   
    31   24   31 1   
    32   25   32 1   
    33   25   33 1   
    34   25   34 1   
    35   26   35 1   
    36   26   36 1   
    37   26   37 1   
    38   38   39 1   
    39   38   46 1   
    40   39   40 1   
    41   39   42 1   
    42   39   47 1   
    43   40   41 2   
    44   40   50 1   
    45   42   43 1   
    46   42   48 1   
    47   42   49 1   
    48   43   44 1   
    49   43   45 1   
    50   50   51 1   
    51   50   54 1   
    52   51   52 1   
    53   51   55 1   
    54   51   56 1   
    55   52   53 2   
    56   52   57 1   
    57   57   58 1   
    58   57   65 1   
    59   58   59 1   
    60   58   61 1   
    61   58   66 1   
    62   59   60 2   
    63   59   69 1   
    64   61   62 1   
    65   61   67 1   
    66   61   68 1   
    67   62   63 1   
    68   62   64 1   
    69   69   70 1   
    70   69   73 1   
    71   70   71 1   
    72   70   74 1   
    73   70   75 1   
    74   71   72 2   
    75   71   76 1   
    76   76   77 1   
    77   76   85 1   
    78   77   78 1   
    79   77   80 1   
    80   77   86 1   
    81   78   79 2   
    82   78   93 1   
    83   80   81 1   
    84   80   87 1   
    85   80   88 1   
    86   81   82 1   
    87   81   89 1   
    88   81   90 1   
    89   82   83 1   
    90   82   84 2   
    91   83   91 1   
    92   83   92 1   
    93   93   94 1   
    94   93  100 1   
    95   94   95 1   
    96   94   97 1   
    97   94  101 1   
    98   95   96 2   
    99   95  109 1   
   100   97   98 1   
   101   97   99 1   
   102   97  102 1   
   103   98  103 1   
   104   98  104 1   
   105   98  105 1   
   106   99  106 1   
   107   99  107 1   
   108   99  108 1   
   109  109  110 1   
   110  109  117 1   
   111  110  111 1   
   112  110  113 1   
   113  110  118 1   
   114  111  112 2   
   115  111  123 1   
   116  113  114 1   
   117  113  119 1   
   118  113  120 1   
   119  114  115 1   
   120  114  116 2   
   121  115  121 1   
   122  115  122 1   
   123  123  124 1   
   124  123  135 1   
   125  124  125 1   
   126  124  127 1   
   127  124  136 1   
   128  125  126 2   
   129  125  144 1   
   130  127  128 1   
   131  127  137 1   
   132  127  138 1   
   133  128  129 ar  
   134  128  130 ar  
   135  129  131 ar  
   136  129  139 1   
   137  130  132 ar  
   138  130  140 1   
   139  131  133 ar  
   140  131  141 1   
   141  132  133 ar  
   142  132  142 1   
   143  133  134 1   
   144  134  143 1   
   145  144  145 1   
   146  144  153 1   
   147  145  146 1   
   148  145  148 1   
   149  145  154 1   
   150  146  147 2   
   151  146  159 1   
   152  148  149 1   
   153  148  155 1   
   154  148  156 1   
   155  149  150 1   
   156  149  157 1   
   157  149  158 1   
   158  150  151 1   
   159  150  152 1   
   160  159  160 1   
   161  159  168 1   
   162  160  161 1   
   163  160  163 1   
   164  160  169 1   
   165  161  162 2   
   166  161  174 1   
   167  163  164 1   
   168  163  170 1   
   169  163  171 1   
   170  164  165 1   
   171  164  172 1   
   172  164  173 1   
   173  165  166 1   
   174  165  167 1   
   175  174  175 1   
   176  174  179 1   
   177  175  176 1   
   178  175  177 1   
   179  175  178 1   
   180  181  182 1   
   181  181  183 1   
   182  184  185 1   
   183  184  186 1   
   184  187  188 1   
   185  187  189 1   
@<TRIPOS>SUBSTRUCTURE
     1 MOL         1 TEMP              0 ****  ****    0 ROOT
