@<TRIPOS>MOLECULE
MOL
  169   169     1     0     0
SMALL
resp


@<TRIPOS>ATOM
      1 C1          0.2650   -3.5560    5.4940 c3        1 MOL     -0.354247
      2 C2          0.6290   -3.1920    4.0800 c         1 MOL      0.784044
      3 O1          0.1280   -3.8430    3.1750 o         1 MOL     -0.613702
      4 H1          1.0800   -3.2760    6.1610 hc        1 MOL      0.078032
      5 H2         -0.6420   -3.0250    5.7840 hc        1 MOL      0.078032
      6 H3          0.0950   -4.6300    5.5610 hc        1 MOL      0.078032
      7 N1          1.5460   -2.3040    3.9200 n         1 MOL     -0.594142
      8 C3          2.3310   -2.0810    2.6460 c3        1 MOL      0.001075
      9 C4          2.7910   -3.4020    1.9550 c         1 MOL      0.558350
     10 O2          3.7580   -4.0440    2.2630 o         1 MOL     -0.573185
     11 C5          3.5790   -1.2590    2.9270 c3        1 MOL      0.010435
     12 C6          4.2440   -0.6030    1.7620 c         1 MOL      0.585479
     13 O3          3.6860   -0.3950    0.6470 o         1 MOL     -0.682352
     14 O4          5.3010    0.0440    2.0680 o         1 MOL     -0.682352
     15 H4          1.7900   -1.8570    4.7880 hn        1 MOL      0.307801
     16 H5          1.6760   -1.5880    1.9310 h1        1 MOL      0.094398
     17 H6          4.3730   -1.7670    3.4810 hc        1 MOL      0.025084
     18 H7          3.3950   -0.4760    3.6570 hc        1 MOL      0.025084
     19 N2          2.1550   -3.8570    0.8350 n         1 MOL     -0.196261
     20 C7          2.3730   -5.1390    0.1160 c3        1 MOL      0.232626
     21 C8          3.5080   -5.1610   -0.8610 c         1 MOL      0.320904
     22 O5          4.2640   -6.1430   -1.0130 o         1 MOL     -0.568540
     23 C9          1.1150   -5.5880   -0.7310 c3        1 MOL     -0.344122
     24 H8          1.5680   -3.1660    0.4030 hn        1 MOL      0.061002
     25 H9          2.5230   -5.8880    0.8870 h1        1 MOL      0.023394
     26 H10         0.2380   -5.6560   -0.0890 hc        1 MOL      0.092845
     27 H11         0.9950   -4.9380   -1.6080 hc        1 MOL      0.092845
     28 H12         1.2780   -6.5380   -1.2230 hc        1 MOL      0.092845
     29 N3          3.5960   -4.0820   -1.6410 n         1 MOL     -0.117968
     30 C10         4.6600   -3.7380   -2.6140 c3        1 MOL     -0.073127
     31 C11         5.7780   -2.9560   -1.9490 c         1 MOL      0.431712
     32 O6          6.7280   -2.6070   -2.6530 o         1 MOL     -0.550957
     33 C12         4.0820   -3.0550   -3.8450 c3        1 MOL     -0.061196
     34 C13         3.3730   -1.7210   -3.4980 c         1 MOL      0.726012
     35 O7          3.1490   -1.4620   -2.2840 o         1 MOL     -0.708654
     36 O8          3.0350   -0.9500   -4.3660 o         1 MOL     -0.708654
     37 H13         2.9130   -3.3340   -1.6640 hn        1 MOL      0.176431
     38 H14         5.1810   -4.6250   -2.9650 h1        1 MOL      0.084708
     39 H15         3.3230   -3.7210   -4.2560 hc        1 MOL      0.013988
     40 H16         4.8690   -2.8450   -4.5690 hc        1 MOL      0.013988
     41 N4          5.7290   -2.6170   -0.6490 n         1 MOL     -0.079300
     42 C14         6.8950   -2.1840    0.1080 c3        1 MOL     -0.035780
     43 C15         7.4550   -0.8680   -0.3510 c         1 MOL      0.457781
     44 O9          8.6670   -0.7300   -0.1830 o         1 MOL     -0.577968
     45 H17         4.9500   -2.9580   -0.0860 hn        1 MOL      0.095743
     46 H18         7.6650   -2.9540    0.0450 h1        1 MOL      0.056743
     47 H19         6.6000   -2.0930    1.1520 h1        1 MOL      0.056743
     48 N5          6.6340    0.0180   -0.9040 n         1 MOL     -0.121775
     49 C16         6.9430    1.3280   -1.4140 c3        1 MOL     -0.172567
     50 C17         6.8530    2.5370   -0.4920 c         1 MOL      0.493003
     51 O10         7.2010    3.6360   -0.9860 o         1 MOL     -0.566413
     52 C18         6.1270    1.4740   -2.7640 c3        1 MOL     -0.039972
     53 C19         4.6620    1.8790   -2.5180 c         1 MOL      0.618543
     54 N6          4.0440    2.7340   -3.2800 n         1 MOL     -0.721281
     55 O11         4.0360    1.6300   -1.5140 o         1 MOL     -0.597588
     56 H20         5.6410   -0.1860   -0.8360 hn        1 MOL      0.086052
     57 H21         7.9990    1.1990   -1.6490 h1        1 MOL      0.121628
     58 H22         6.1590    0.5290   -3.3160 hc        1 MOL      0.049571
     59 H23         6.6020    2.2260   -3.3950 hc        1 MOL      0.049571
     60 H24         4.5960    3.0880   -4.0520 hn        1 MOL      0.340255
     61 H25         3.3990    3.3330   -2.7900 hn        1 MOL      0.340255
     62 N7          6.3420    2.3780    0.7130 n         1 MOL     -0.216359
     63 C20         6.3200    3.4180    1.7560 c3        1 MOL     -0.158439
     64 C21         5.0170    4.1930    1.8440 c         1 MOL      0.521845
     65 O12         4.9400    5.3060    2.4630 o         1 MOL     -0.604050
     66 H26         5.7850    1.5510    0.8570 hn        1 MOL      0.247625
     67 H27         7.1370    4.0870    1.5030 h1        1 MOL      0.106215
     68 H28         6.4920    2.9640    2.7330 h1        1 MOL      0.106215
     69 N8          3.9790    3.8850    1.0610 n         1 MOL     -0.144035
     70 C22         2.6540    4.5250    1.0300 c3        1 MOL     -0.329454
     71 C23         1.5360    3.4550    0.8750 c         1 MOL      0.625909
     72 O13         1.6390    2.5280    0.0550 o         1 MOL     -0.604636
     73 C24         2.4470    5.4390   -0.1580 c3        1 MOL      0.402705
     74 C25         3.1700    6.7150   -0.0060 c3        1 MOL     -0.371496
     75 O14         2.8640    4.8240   -1.4090 oh        1 MOL     -0.600699
     76 H29         4.1190    3.1490    0.3810 hn        1 MOL      0.236838
     77 H30         2.5060    4.9960    1.9990 h1        1 MOL      0.148000
     78 H31         1.3840    5.6450   -0.3080 h1        1 MOL      0.008872
     79 H32         2.2090    4.1940   -1.7010 ho        1 MOL      0.394545
     80 H33         4.1800    6.4000    0.2320 hc        1 MOL      0.105031
     81 H34         3.1950    7.3590   -0.8790 hc        1 MOL      0.105031
     82 H35         2.7580    7.3510    0.7820 hc        1 MOL      0.105031
     83 N9          0.4630    3.6520    1.6490 n         1 MOL     -0.551987
     84 C26        -0.7530    2.8050    1.6990 c3        1 MOL      0.025902
     85 C27        -1.6070    3.1040    0.4550 c         1 MOL      0.714808
     86 O15        -1.9840    4.2160    0.2240 o         1 MOL     -0.618974
     87 C28        -1.5680    2.9790    3.0050 c3        1 MOL     -0.137198
     88 C29        -1.0740    1.8890    4.0190 c3        1 MOL      0.272396
     89 C30        -3.1060    2.8220    2.8550 c3        1 MOL      0.005305
     90 C31        -1.4620    2.1480    5.4620 c3        1 MOL     -0.159490
     91 H36         0.3870    4.5210    2.1780 hn        1 MOL      0.302527
     92 H37        -0.4130    1.7760    1.6690 h1        1 MOL      0.154902
     93 H38        -1.2720    3.9640    3.3770 hc        1 MOL      0.049847
     94 H39         0.0100    1.8160    4.1030 hc        1 MOL     -0.048339
     95 H40        -1.3570    0.8820    3.7280 hc        1 MOL     -0.048339
     96 H41        -3.6350    3.0890    3.7710 hc        1 MOL     -0.012651
     97 H42        -3.4660    3.4980    2.0920 hc        1 MOL     -0.012651
     98 H43        -3.3250    1.7970    2.5540 hc        1 MOL     -0.012651
     99 H44        -1.2390    3.1730    5.7390 hc        1 MOL      0.019182
    100 H45        -2.5370    1.9490    5.4150 hc        1 MOL      0.019182
    101 H46        -1.0430    1.4540    6.1840 hc        1 MOL      0.019182
    102 N10        -1.8990    2.0810   -0.2570 n         1 MOL     -0.343836
    103 C32        -3.0140    1.9130   -1.3100 c3        1 MOL      0.120260
    104 C33        -4.3950    1.4290   -0.7770 c         1 MOL      0.326963
    105 O16        -4.4840    0.7250    0.1680 o         1 MOL     -0.230356
    106 C34        -2.4870    1.0110   -2.3860 c3        1 MOL     -0.123916
    107 C35        -1.1160    1.3580   -2.9250 c         1 MOL      0.738239
    108 O17        -0.9830    2.3690   -3.6170 o         1 MOL     -0.715804
    109 O18        -0.1230    0.7220   -2.6340 o         1 MOL     -0.715804
    110 H47        -1.5020    1.2400    0.1570 hn        1 MOL      0.062972
    111 H48        -3.1480    2.8510   -1.8530 h1        1 MOL      0.046700
    112 H49        -3.1590    0.9380   -3.2460 hc        1 MOL      0.015366
    113 H50        -2.3700   -0.0230   -2.0620 hc        1 MOL      0.015366
    114 N11        -5.5170    1.7360   -1.3700 n         1 MOL     -0.527344
    115 C36        -6.8510    1.2390   -1.0810 c3        1 MOL      0.413549
    116 C37        -7.0230   -0.2580   -0.6540 c         1 MOL      0.280322
    117 O19        -7.5120   -0.4680    0.4580 o         1 MOL     -0.477330
    118 C38        -7.7100    1.6520   -2.2870 c3        1 MOL     -0.247321
    119 C39        -9.2210    1.4770   -2.0940 ca        1 MOL      0.168887
    120 C40        -9.8160    0.2310   -2.4650 ca        1 MOL     -0.250456
    121 C41       -10.0290    2.4150   -1.4720 ca        1 MOL     -0.250456
    122 C42       -11.1490   -0.1010   -2.0490 ca        1 MOL     -0.001569
    123 C43       -11.3610    2.1060   -1.0860 ca        1 MOL     -0.001569
    124 C44       -11.9170    0.8590   -1.3480 ca        1 MOL     -0.233386
    125 H51        -5.5090    2.2680   -2.2300 hn        1 MOL      0.282969
    126 H52        -7.1790    1.8230   -0.2210 h1        1 MOL      0.006355
    127 H53        -7.3360    1.1150   -3.1600 hc        1 MOL      0.067341
    128 H54        -7.5250    2.7200   -2.4170 hc        1 MOL      0.067341
    129 H55        -9.2370   -0.5620   -2.9200 ha        1 MOL      0.130113
    130 H56        -9.5910    3.3570   -1.1640 ha        1 MOL      0.130113
    131 H57       -11.5550   -1.0620   -2.3390 ha        1 MOL      0.089696
    132 H58       -11.8990    2.8190   -0.4850 ha        1 MOL      0.089696
    133 H59       -12.8270    0.5610   -0.8300 ha        1 MOL      0.134265
    134 N12        -6.4800   -1.2500   -1.4210 n         1 MOL     -0.036638
    135 C45        -6.3490   -2.5940   -0.9930 c3        1 MOL      0.000468
    136 C46        -5.6110   -2.8100    0.3500 c         1 MOL      0.389605
    137 O20        -5.9820   -3.7030    1.0610 o         1 MOL     -0.521881
    138 C47        -5.6810   -3.3570   -2.1850 c3        1 MOL     -0.074737
    139 C48        -4.9100   -2.2190   -2.8900 c3        1 MOL     -0.080261
    140 C49        -5.9190   -1.1060   -2.7260 c3        1 MOL      0.000426
    141 H60        -7.3100   -3.0670   -0.7910 h1        1 MOL      0.048683
    142 H61        -5.0330   -4.1940   -1.9060 hc        1 MOL      0.050501
    143 H62        -6.4920   -3.7870   -2.7860 hc        1 MOL      0.050501
    144 H63        -3.9720   -1.9680   -2.3900 hc        1 MOL      0.049731
    145 H64        -4.7250   -2.4450   -3.9380 hc        1 MOL      0.049731
    146 H65        -5.4380   -0.1400   -2.8640 h1        1 MOL      0.019808
    147 H66        -6.7400   -1.1270   -3.4320 h1        1 MOL      0.019808
    148 N13        -4.5470   -2.1230    0.6630 n         1 MOL     -0.180614
    149 C50        -3.7700   -2.2500    1.9120 c3        1 MOL     -0.178611
    150 C51        -4.5180   -1.4310    3.0230 c         1 MOL      0.415605
    151 O21        -4.5630   -1.8270    4.2230 o         1 MOL     -0.551035
    152 C52        -2.4370   -1.5610    1.7080 c3        1 MOL      0.113123
    153 C53        -1.5130   -2.1980    0.6690 c3        1 MOL     -0.135213
    154 C54        -0.2860   -1.3820    0.2340 c         1 MOL      0.830789
    155 O22         0.5350   -1.9290   -0.5360 o         1 MOL     -0.814037
    156 O23        -0.0070   -0.2830    0.7000 o         1 MOL     -0.814037
    157 H67        -4.2310   -1.3610    0.0710 hn        1 MOL      0.192105
    158 H68        -3.5930   -3.2880    2.1610 h1        1 MOL      0.153208
    159 H69        -1.9790   -1.5540    2.6960 hc        1 MOL      0.009212
    160 H70        -2.5860   -0.5030    1.4620 hc        1 MOL      0.009212
    161 H71        -2.0350   -2.3950   -0.2680 hc        1 MOL      0.040317
    162 H72        -1.0770   -3.1150    1.0830 hc        1 MOL      0.040317
    163 N14        -5.3360   -0.3950    2.6610 n         1 MOL      0.102163
    164 C55        -6.1400    0.2750    3.6080 c3        1 MOL     -0.291819
    165 H73        -7.1790    0.2600    3.2770 h1        1 MOL      0.088796
    166 H74        -6.0590   -0.2240    4.5730 h1        1 MOL      0.088796
    167 H75        -5.8060    1.3080    3.7030 h1        1 MOL      0.088796
    168 H76        -5.4920   -0.1980    1.6800 hn        1 MOL     -0.009736
    169 Ca1         1.8530    0.1970   -1.0840 Ca        1 MOL      1.690977
@<TRIPOS>BOND
     1    1    2 1   
     2    1    4 1   
     3    1    5 1   
     4    1    6 1   
     5    2    3 2   
     6    2    7 1   
     7    7    8 1   
     8    7   15 1   
     9    8    9 1   
    10    8   11 1   
    11    8   16 1   
    12    9   10 2   
    13    9   19 1   
    14   11   12 1   
    15   11   17 1   
    16   11   18 1   
    17   12   13 1   
    18   12   14 1   
    19   19   20 1   
    20   19   24 1   
    21   20   21 1   
    22   20   23 1   
    23   20   25 1   
    24   21   22 2   
    25   21   29 1   
    26   23   26 1   
    27   23   27 1   
    28   23   28 1   
    29   29   30 1   
    30   29   37 1   
    31   30   31 1   
    32   30   33 1   
    33   30   38 1   
    34   31   32 2   
    35   31   41 1   
    36   33   34 1   
    37   33   39 1   
    38   33   40 1   
    39   34   35 1   
    40   34   36 1   
    41   41   42 1   
    42   41   45 1   
    43   42   43 1   
    44   42   46 1   
    45   42   47 1   
    46   43   44 2   
    47   43   48 1   
    48   48   49 1   
    49   48   56 1   
    50   49   50 1   
    51   49   52 1   
    52   49   57 1   
    53   50   51 2   
    54   50   62 1   
    55   52   53 1   
    56   52   58 1   
    57   52   59 1   
    58   53   54 1   
    59   53   55 2   
    60   54   60 1   
    61   54   61 1   
    62   62   63 1   
    63   62   66 1   
    64   63   64 1   
    65   63   67 1   
    66   63   68 1   
    67   64   65 2   
    68   64   69 1   
    69   69   70 1   
    70   69   76 1   
    71   70   71 1   
    72   70   73 1   
    73   70   77 1   
    74   71   72 2   
    75   71   83 1   
    76   73   74 1   
    77   73   75 1   
    78   73   78 1   
    79   74   80 1   
    80   74   81 1   
    81   74   82 1   
    82   75   79 1   
    83   83   84 1   
    84   83   91 1   
    85   84   85 1   
    86   84   87 1   
    87   84   92 1   
    88   85   86 2   
    89   85  102 1   
    90   87   88 1   
    91   87   89 1   
    92   87   93 1   
    93   88   90 1   
    94   88   94 1   
    95   88   95 1   
    96   89   96 1   
    97   89   97 1   
    98   89   98 1   
    99   90   99 1   
   100   90  100 1   
   101   90  101 1   
   102  102  103 1   
   103  102  110 1   
   104  103  104 1   
   105  103  106 1   
   106  103  111 1   
   107  104  105 2   
   108  104  114 1   
   109  106  107 1   
   110  106  112 1   
   111  106  113 1   
   112  107  108 1   
   113  107  109 1   
   114  114  115 1   
   115  114  125 1   
   116  115  116 1   
   117  115  118 1   
   118  115  126 1   
   119  116  117 2   
   120  116  134 1   
   121  118  119 1   
   122  118  127 1   
   123  118  128 1   
   124  119  120 ar  
   125  119  121 ar  
   126  120  122 ar  
   127  120  129 1   
   128  121  123 ar  
   129  121  130 1   
   130  122  124 ar  
   131  122  131 1   
   132  123  124 ar  
   133  123  132 1   
   134  124  133 1   
   135  134  135 1   
   136  134  140 1   
   137  135  136 1   
   138  135  138 1   
   139  135  141 1   
   140  136  137 2   
   141  136  148 1   
   142  138  139 1   
   143  138  142 1   
   144  138  143 1   
   145  139  140 1   
   146  139  144 1   
   147  139  145 1   
   148  140  146 1   
   149  140  147 1   
   150  148  149 1   
   151  148  157 1   
   152  149  150 1   
   153  149  152 1   
   154  149  158 1   
   155  150  151 2   
   156  150  163 1   
   157  152  153 1   
   158  152  159 1   
   159  152  160 1   
   160  153  154 1   
   161  153  161 1   
   162  153  162 1   
   163  154  155 1   
   164  154  156 1   
   165  163  164 1   
   166  163  168 1   
   167  164  165 1   
   168  164  166 1   
   169  164  167 1   
@<TRIPOS>SUBSTRUCTURE
     1 MOL         1 TEMP              0 ****  ****    0 ROOT
