@<TRIPOS>MOLECULE
MOL
  189   185     1     0     0
SMALL
resp


@<TRIPOS>ATOM
      1 C1          0.2210    2.6070   -5.8470 c3        1 MOL     -0.481445
      2 C2          0.4080    2.3120   -4.3530 c         1 MOL      0.659269
      3 O1         -0.4450    2.6010   -3.5070 o         1 MOL     -0.617620
      4 H1         -0.3070    3.5530   -5.9670 hc        1 MOL      0.128395
      5 H2          1.1960    2.6730   -6.3290 hc        1 MOL      0.128395
      6 H3         -0.3590    1.8070   -6.3060 hc        1 MOL      0.128395
      7 N1          1.5800    1.7880   -3.9920 n         1 MOL     -0.534073
      8 C3          2.1330    1.5510   -2.6400 c3        1 MOL      0.333510
      9 C4          2.3410    2.9760   -1.9530 c         1 MOL      0.289061
     10 O2          3.4380    3.5710   -2.0150 o         1 MOL     -0.494317
     11 C5          3.3990    0.7680   -2.7720 c3        1 MOL     -0.240187
     12 C6          3.9990    0.4190   -1.3980 c         1 MOL      0.739289
     13 O3          5.1230   -0.2120   -1.4710 o         1 MOL     -0.674804
     14 O4          3.4850    0.6730   -0.2830 o         1 MOL     -0.674804
     15 H4          2.1620    1.5560   -4.7830 hn        1 MOL      0.293091
     16 H5          1.4330    0.9540   -2.0550 h1        1 MOL     -0.002834
     17 H6          4.1020    1.3820   -3.3320 hc        1 MOL      0.052025
     18 H7          3.0640   -0.1230   -3.3110 hc        1 MOL      0.052025
     19 N2          1.2820    3.4560   -1.3080 n         1 MOL     -0.043906
     20 C7          1.1320    4.8280   -0.9630 c3        1 MOL     -0.217191
     21 C8          1.6430    5.1750    0.4720 c         1 MOL      0.507333
     22 O5          1.5820    6.3920    0.8210 o         1 MOL     -0.590460
     23 C9         -0.3820    5.1850   -1.1590 c3        1 MOL     -0.057891
     24 C10        -0.6180    6.7110   -1.3180 c3        1 MOL      0.069210
     25 C11        -2.0120    6.9450   -1.8580 c3        1 MOL     -0.116339
     26 C12        -2.2550    8.3820   -2.1630 c3        1 MOL      0.008637
     27 N3         -1.5290    8.9750   -3.2480 n4        1 MOL     -0.492495
     28 H8          0.4880    2.8270   -1.2150 hn        1 MOL      0.198348
     29 H9          1.7610    5.3900   -1.6530 h1        1 MOL      0.115597
     30 H10        -0.9310    4.8470   -0.2760 hc        1 MOL      0.076023
     31 H11        -0.7980    4.7950   -2.0860 hc        1 MOL      0.076023
     32 H12         0.1160    7.1360   -2.0050 hc        1 MOL      0.007794
     33 H13        -0.5470    7.1450   -0.3290 hc        1 MOL      0.007794
     34 H14        -2.7070    6.5560   -1.1170 hc        1 MOL      0.064605
     35 H15        -2.1460    6.3280   -2.7410 hc        1 MOL      0.064605
     36 H16        -2.1800    8.9820   -1.2550 hx        1 MOL      0.099225
     37 H17        -3.3200    8.4970   -2.3480 hx        1 MOL      0.099225
     38 H18        -0.5760    9.2160   -3.0260 hn        1 MOL      0.367070
     39 H19        -1.4400    8.2970   -3.9860 hn        1 MOL      0.367070
     40 H20        -1.9700    9.8400   -3.5160 hn        1 MOL      0.367070
     41 N4          2.1260    4.2040    1.2380 n         1 MOL     -0.333279
     42 C13         3.0940    4.4590    2.3140 c3        1 MOL      0.388040
     43 C14         4.5050    4.0090    1.9620 c         1 MOL      0.309565
     44 O6          5.4870    4.5020    2.5010 o         1 MOL     -0.545221
     45 C15         2.5270    3.8810    3.6210 c3        1 MOL     -0.452994
     46 C16         2.0040    2.4280    3.6150 c         1 MOL      0.956896
     47 O7          2.2750    1.6460    2.6760 o         1 MOL     -0.764609
     48 O8          1.2100    2.0390    4.4990 o         1 MOL     -0.764609
     49 H21         2.0300    3.2420    0.9510 hn        1 MOL      0.160752
     50 H22         3.2110    5.5370    2.4340 h1        1 MOL      0.003858
     51 H23         1.6650    4.5220    3.8090 hc        1 MOL      0.091404
     52 H24         3.3260    3.9160    4.3610 hc        1 MOL      0.091404
     53 N5          4.6350    3.1080    0.9880 n         1 MOL      0.190545
     54 C17         5.8740    2.5260    0.5860 c3        1 MOL     -0.219517
     55 C18         6.4820    1.5370    1.4880 c         1 MOL      0.671345
     56 O9          6.9220    1.8570    2.5750 o         1 MOL     -0.522393
     57 H25         3.8180    2.9030    0.4340 hn        1 MOL     -0.137830
     58 H26         6.6040    3.3180    0.4120 h1        1 MOL      0.076531
     59 H27         5.7090    2.1790   -0.4290 h1        1 MOL      0.076531
     60 N6          6.4780    0.2430    1.0990 n         1 MOL     -0.569319
     61 C19         7.0740   -0.8940    1.9140 c3        1 MOL     -0.029109
     62 C20         7.2870   -2.1840    1.0740 c         1 MOL      0.478389
     63 O10         7.4360   -3.2840    1.6350 o         1 MOL     -0.547864
     64 C21         6.1880   -1.2110    3.1280 c3        1 MOL     -0.122803
     65 C22         4.7140   -1.2590    2.6890 c         1 MOL      0.748250
     66 O11         3.9300   -0.4170    3.2120 o         1 MOL     -0.699223
     67 O12         4.1540   -2.0990    1.8810 o         1 MOL     -0.699223
     68 H28         5.9300   -0.0050    0.2800 hn        1 MOL      0.241974
     69 H29         8.0930   -0.5900    2.1410 h1        1 MOL      0.105785
     70 H30         6.3450   -0.5390    3.9610 hc        1 MOL      0.059659
     71 H31         6.4320   -2.1400    3.6300 hc        1 MOL      0.059659
     72 N7          7.0150   -2.1350   -0.2190 n         1 MOL     -0.335581
     73 C23         7.1520   -3.2470   -1.1550 c3        1 MOL     -0.054774
     74 C24         5.8510   -4.0190   -1.4850 c         1 MOL      0.428694
     75 O13         5.8280   -4.9010   -2.3860 o         1 MOL     -0.559362
     76 H32         6.7010   -1.2800   -0.6490 hn        1 MOL      0.283246
     77 H33         7.8310   -4.0070   -0.7740 h1        1 MOL      0.088882
     78 H34         7.6090   -2.9390   -2.0960 h1        1 MOL      0.088882
     79 N8          4.7220   -3.6690   -0.8640 n         1 MOL     -0.107587
     80 C25         3.4180   -4.3480   -0.8750 c3        1 MOL     -0.231205
     81 C26         2.2110   -3.4540   -0.8490 c         1 MOL      0.659331
     82 O14         2.0760   -2.3740   -0.3480 o         1 MOL     -0.586687
     83 C27         3.2680   -5.4100    0.2590 c3        1 MOL      0.441974
     84 C28         4.3930   -6.4480    0.3010 c3        1 MOL     -0.557618
     85 O15         3.3620   -4.7530    1.4930 oh        1 MOL     -0.591676
     86 H35         4.7290   -2.8720   -0.2360 hn        1 MOL      0.133624
     87 H36         3.3590   -4.8250   -1.8630 h1        1 MOL      0.102199
     88 H37         2.2860   -5.8850    0.2440 h1        1 MOL      0.014066
     89 H38         4.0110   -4.0490    1.3610 ho        1 MOL      0.355282
     90 H39         4.3150   -7.0260   -0.6170 hc        1 MOL      0.147995
     91 H40         5.3320   -5.8910    0.3480 hc        1 MOL      0.147995
     92 H41         4.3310   -6.9920    1.2510 hc        1 MOL      0.147995
     93 N9          1.1320   -4.0250   -1.4530 n         1 MOL     -0.589113
     94 C29        -0.1620   -3.4140   -1.7520 c3        1 MOL      0.091000
     95 C30        -1.3100   -4.1120   -1.0120 c         1 MOL      0.573926
     96 O16        -1.5020   -5.3030   -0.9450 o         1 MOL     -0.553652
     97 C31        -0.4030   -3.4620   -3.2290 c3        1 MOL     -0.016700
     98 C32         0.6290   -2.4980   -3.8190 c3        1 MOL      0.193137
     99 C33        -1.8360   -2.9870   -3.6520 c3        1 MOL     -0.440833
    100 C34         0.4650   -2.1890   -5.3560 c3        1 MOL     -0.226244
    101 H42         1.1890   -5.0010   -1.7140 hn        1 MOL      0.272138
    102 H43        -0.1150   -2.3840   -1.4040 h1        1 MOL      0.026866
    103 H44        -0.3600   -4.4630   -3.6420 hc        1 MOL      0.052054
    104 H45         1.6290   -2.9320   -3.7530 hc        1 MOL     -0.012121
    105 H46         0.7670   -1.5630   -3.2700 hc        1 MOL     -0.012121
    106 H47        -2.5660   -3.5670   -3.0900 hc        1 MOL      0.115423
    107 H48        -1.8530   -1.9020   -3.5290 hc        1 MOL      0.115423
    108 H49        -1.8980   -3.0900   -4.7370 hc        1 MOL      0.115423
    109 H50         0.5830   -3.1390   -5.8850 hc        1 MOL      0.049123
    110 H51        -0.4650   -1.7100   -5.6290 hc        1 MOL      0.049123
    111 H52         1.3190   -1.5690   -5.6330 hc        1 MOL      0.049123
    112 N10        -2.0720   -3.2330   -0.2300 n         1 MOL     -0.162818
    113 C35        -3.2250   -3.4670    0.6760 c3        1 MOL     -0.065561
    114 C36        -4.4940   -3.0520   -0.0090 c         1 MOL      0.359552
    115 O17        -4.5560   -2.4530   -1.0790 o         1 MOL     -0.360421
    116 C37        -3.1030   -2.5700    1.9810 c3        1 MOL      0.047747
    117 C38        -1.9170   -2.9620    2.9070 c3        1 MOL     -0.282087
    118 O18        -2.9620   -1.2030    1.6850 oh        1 MOL     -0.396564
    119 H53        -1.7430   -2.2770   -0.2110 hn        1 MOL      0.138060
    120 H54        -3.2000   -4.5330    0.9370 h1        1 MOL      0.091530
    121 H55        -4.0200   -2.5780    2.5670 h1        1 MOL      0.051509
    122 H56        -2.0270   -0.9920    1.6630 ho        1 MOL      0.278791
    123 H57        -2.0330   -3.9500    3.3640 hc        1 MOL      0.085032
    124 H58        -0.9460   -2.9470    2.4260 hc        1 MOL      0.085032
    125 H59        -1.8030   -2.3200    3.7710 hc        1 MOL      0.085032
    126 N11        -5.6740   -3.2580    0.6760 n         1 MOL     -0.148092
    127 C39        -7.0070   -2.8770    0.1910 c3        1 MOL     -0.468381
    128 C40        -7.2100   -1.4230    0.1960 c         1 MOL      0.658092
    129 O19        -8.0320   -0.9580   -0.5160 o         1 MOL     -0.573139
    130 C41        -8.0940   -3.4800    1.1810 c3        1 MOL      0.382579
    131 C42        -8.1310   -4.9590    0.7590 c3        1 MOL     -0.519146
    132 O20        -7.6980   -3.1570    2.5370 oh        1 MOL     -0.604537
    133 H60        -5.5650   -3.8970    1.4540 hn        1 MOL      0.171242
    134 H61        -7.1520   -3.2780   -0.8190 h1        1 MOL      0.218341
    135 H62        -8.9830   -2.9030    0.9600 h1        1 MOL      0.074879
    136 H63        -7.1030   -3.8640    2.7820 ho        1 MOL      0.390083
    137 H64        -8.2880   -5.1040   -0.3090 hc        1 MOL      0.147681
    138 H65        -7.1300   -5.3620    0.8840 hc        1 MOL      0.147681
    139 H66        -8.8820   -5.4340    1.3880 hc        1 MOL      0.147681
    140 N12        -6.3930   -0.5610    0.7940 n         1 MOL     -0.282928
    141 C43        -6.3610    0.9220    0.8140 c3        1 MOL     -0.069442
    142 C44        -5.5580    1.4320   -0.4540 c         1 MOL      0.642442
    143 O21        -5.6510    2.6120   -0.7350 o         1 MOL     -0.592179
    144 C45        -5.9220    1.4290    2.1310 c3        1 MOL     -0.029124
    145 C46        -7.0500    1.7070    3.1340 c3        1 MOL      0.003128
    146 C47        -6.4790    1.9020    4.5160 c3        1 MOL      0.000776
    147 C48        -7.6590    2.1590    5.5030 c3        1 MOL     -0.026223
    148 N13        -7.2440    1.8490    6.9040 n4        1 MOL     -0.294456
    149 H67        -5.6820   -0.9710    1.3810 hn        1 MOL      0.182301
    150 H68        -7.3640    1.2820    0.5730 h1        1 MOL      0.085150
    151 H69        -5.3420    2.3510    2.0990 hc        1 MOL      0.051116
    152 H70        -5.1720    0.7570    2.5430 hc        1 MOL      0.051116
    153 H71        -7.6900    0.8290    3.1970 hc        1 MOL      0.019447
    154 H72        -7.6090    2.5860    2.8120 hc        1 MOL      0.019447
    155 H73        -5.8530    2.8000    4.4700 hc        1 MOL      0.039586
    156 H74        -5.8950    1.0230    4.7610 hc        1 MOL      0.039586
    157 H75        -8.5030    1.5360    5.2160 hx        1 MOL      0.096825
    158 H76        -7.8440    3.2300    5.4000 hx        1 MOL      0.096825
    159 H77        -8.0110    2.0190    7.5350 hn        1 MOL      0.299832
    160 H78        -7.0120    0.8630    7.0160 hn        1 MOL      0.299832
    161 H79        -6.4730    2.4140    7.2280 hn        1 MOL      0.299832
    162 N14        -4.8550    0.5420   -1.1870 n         1 MOL     -0.352304
    163 C49        -3.8600    0.8450   -2.2060 c3        1 MOL     -0.094232
    164 C50        -4.1930    0.1160   -3.5620 c         1 MOL      0.435484
    165 O22        -3.5950    0.4660   -4.6210 o         1 MOL     -0.516391
    166 C51        -2.5010    0.2290   -1.7330 c3        1 MOL      0.076025
    167 C52        -1.9440    1.1000   -0.6120 c3        1 MOL     -0.123637
    168 C53        -0.5650    0.4540   -0.0980 c         1 MOL      0.759608
    169 O23        -0.5100   -0.7340    0.3870 o         1 MOL     -0.673542
    170 O24         0.4690    1.1480   -0.0260 o         1 MOL     -0.673542
    171 H80        -4.9880   -0.4040   -0.8450 hn        1 MOL      0.089362
    172 H81        -3.8890    1.9100   -2.4580 h1        1 MOL      0.150034
    173 H82        -1.6900    0.2640   -2.4660 hc        1 MOL      0.045021
    174 H83        -2.6190   -0.8200   -1.4710 hc        1 MOL      0.045021
    175 H84        -2.6300    1.2050    0.2280 hc        1 MOL      0.003897
    176 H85        -1.6150    2.0240   -1.0970 hc        1 MOL      0.003897
    177 N15        -5.1100   -0.8930   -3.7330 n         1 MOL     -0.281698
    178 C54        -5.4520   -1.6170   -4.9920 c3        1 MOL     -0.259792
    179 H86        -6.0830   -2.4750   -4.7580 h1        1 MOL      0.118504
    180 H87        -5.9880   -0.9450   -5.6630 h1        1 MOL      0.118504
    181 H88        -4.5370   -1.9610   -5.4750 h1        1 MOL      0.118504
    182 H89        -5.4700   -1.3020   -2.8780 hn        1 MOL      0.243452
    183 Ca1         1.9960   -0.5220    1.4030 Ca        1 MOL      1.724207
    184 O25         1.5300   -2.4560    3.1900 oh        1 MOL     -0.863883
    185 H90         2.2150   -3.1200    3.1600 ho        1 MOL      0.406933
    186 H91         0.9380   -2.7590    3.8890 ho        1 MOL      0.406933
    187 O26        -0.1730    0.1500    3.4410 oh        1 MOL     -0.863883
    188 H92         0.3980    0.8880    3.6650 ho        1 MOL      0.406933
    189 H93         0.0420   -0.5140    4.0990 ho        1 MOL      0.406933
@<TRIPOS>BOND
     1    1    2 1   
     2    1    4 1   
     3    1    5 1   
     4    1    6 1   
     5    2    3 2   
     6    2    7 1   
     7    7    8 1   
     8    7   15 1   
     9    8    9 1   
    10    8   11 1   
    11    8   16 1   
    12    9   10 2   
    13    9   19 1   
    14   11   12 1   
    15   11   17 1   
    16   11   18 1   
    17   12   13 1   
    18   12   14 1   
    19   19   20 1   
    20   19   28 1   
    21   20   21 1   
    22   20   23 1   
    23   20   29 1   
    24   21   22 2   
    25   21   41 1   
    26   23   24 1   
    27   23   30 1   
    28   23   31 1   
    29   24   25 1   
    30   24   32 1   
    31   24   33 1   
    32   25   26 1   
    33   25   34 1   
    34   25   35 1   
    35   26   27 1   
    36   26   36 1   
    37   26   37 1   
    38   27   38 1   
    39   27   39 1   
    40   27   40 1   
    41   41   42 1   
    42   41   49 1   
    43   42   43 1   
    44   42   45 1   
    45   42   50 1   
    46   43   44 2   
    47   43   53 1   
    48   45   46 1   
    49   45   51 1   
    50   45   52 1   
    51   46   47 1   
    52   46   48 1   
    53   53   54 1   
    54   53   57 1   
    55   54   55 1   
    56   54   58 1   
    57   54   59 1   
    58   55   56 2   
    59   55   60 1   
    60   60   61 1   
    61   60   68 1   
    62   61   62 1   
    63   61   64 1   
    64   61   69 1   
    65   62   63 2   
    66   62   72 1   
    67   64   65 1   
    68   64   70 1   
    69   64   71 1   
    70   65   66 1   
    71   65   67 1   
    72   72   73 1   
    73   72   76 1   
    74   73   74 1   
    75   73   77 1   
    76   73   78 1   
    77   74   75 2   
    78   74   79 1   
    79   79   80 1   
    80   79   86 1   
    81   80   81 1   
    82   80   83 1   
    83   80   87 1   
    84   81   82 2   
    85   81   93 1   
    86   83   84 1   
    87   83   85 1   
    88   83   88 1   
    89   84   90 1   
    90   84   91 1   
    91   84   92 1   
    92   85   89 1   
    93   93   94 1   
    94   93  101 1   
    95   94   95 1   
    96   94   97 1   
    97   94  102 1   
    98   95   96 2   
    99   95  112 1   
   100   97   98 1   
   101   97   99 1   
   102   97  103 1   
   103   98  100 1   
   104   98  104 1   
   105   98  105 1   
   106   99  106 1   
   107   99  107 1   
   108   99  108 1   
   109  100  109 1   
   110  100  110 1   
   111  100  111 1   
   112  112  113 1   
   113  112  119 1   
   114  113  114 1   
   115  113  116 1   
   116  113  120 1   
   117  114  115 2   
   118  114  126 1   
   119  116  117 1   
   120  116  118 1   
   121  116  121 1   
   122  117  123 1   
   123  117  124 1   
   124  117  125 1   
   125  118  122 1   
   126  126  127 1   
   127  126  133 1   
   128  127  128 1   
   129  127  130 1   
   130  127  134 1   
   131  128  129 2   
   132  128  140 1   
   133  130  131 1   
   134  130  132 1   
   135  130  135 1   
   136  131  137 1   
   137  131  138 1   
   138  131  139 1   
   139  132  136 1   
   140  140  141 1   
   141  140  149 1   
   142  141  142 1   
   143  141  144 1   
   144  141  150 1   
   145  142  143 2   
   146  142  162 1   
   147  144  145 1   
   148  144  151 1   
   149  144  152 1   
   150  145  146 1   
   151  145  153 1   
   152  145  154 1   
   153  146  147 1   
   154  146  155 1   
   155  146  156 1   
   156  147  148 1   
   157  147  157 1   
   158  147  158 1   
   159  148  159 1   
   160  148  160 1   
   161  148  161 1   
   162  162  163 1   
   163  162  171 1   
   164  163  164 1   
   165  163  166 1   
   166  163  172 1   
   167  164  165 2   
   168  164  177 1   
   169  166  167 1   
   170  166  173 1   
   171  166  174 1   
   172  167  168 1   
   173  167  175 1   
   174  167  176 1   
   175  168  169 1   
   176  168  170 1   
   177  177  178 1   
   178  177  182 1   
   179  178  179 1   
   180  178  180 1   
   181  178  181 1   
   182  184  185 1   
   183  184  186 1   
   184  187  188 1   
   185  187  189 1   
@<TRIPOS>SUBSTRUCTURE
     1 MOL         1 TEMP              0 ****  ****    0 ROOT
