@<TRIPOS>MOLECULE
MOL
  189   185     1     0     0
SMALL
resp


@<TRIPOS>ATOM
      1 C1         -0.6750   -3.1590    5.7180 c3        1 MOL     -0.338917
      2 C2          0.1900   -2.7770    4.5430 c         1 MOL      0.660457
      3 O1          0.2810   -1.5940    4.2360 o         1 MOL     -0.562981
      4 H1         -0.2040   -3.9740    6.2660 hc        1 MOL      0.085541
      5 H2         -0.7930   -2.2990    6.3780 hc        1 MOL      0.085541
      6 H3         -1.6530   -3.4800    5.3600 hc        1 MOL      0.085541
      7 N1          0.8760   -3.7590    3.9500 n         1 MOL     -0.564552
      8 C3          1.8080   -3.5030    2.8140 c3        1 MOL      0.241598
      9 C4          1.8820   -4.8280    1.9960 c         1 MOL      0.361935
     10 O2          1.8680   -5.9860    2.4340 o         1 MOL     -0.554750
     11 C5          3.2360   -3.1360    3.3800 c3        1 MOL     -0.329719
     12 C6          4.0360   -2.2460    2.4150 c         1 MOL      0.694007
     13 O3          5.0370   -1.7250    2.9430 o         1 MOL     -0.672706
     14 O4          3.6260   -1.9400    1.2930 o         1 MOL     -0.672706
     15 H4          0.9160   -4.6780    4.3640 hn        1 MOL      0.300502
     16 H5          1.3720   -2.7580    2.1440 h1        1 MOL      0.087758
     17 H6          3.7210   -4.0960    3.6030 hc        1 MOL      0.087805
     18 H7          3.1240   -2.5630    4.2970 hc        1 MOL      0.087805
     19 N2          1.8990   -4.6020    0.6640 n         1 MOL     -0.217494
     20 C7          2.1990   -5.6250   -0.3350 c3        1 MOL      0.034924
     21 C8          3.6300   -5.4390   -0.8140 c         1 MOL      0.592540
     22 O5          4.2370   -6.4360   -1.3240 o         1 MOL     -0.579228
     23 C9          1.0900   -5.7130   -1.3880 c3        1 MOL      0.126708
     24 C10        -0.3480   -5.6900   -0.6820 c3        1 MOL     -0.082478
     25 C11         1.1680   -6.9290   -2.2900 c3        1 MOL     -0.073895
     26 C12        -1.4980   -5.4360   -1.6980 c3        1 MOL     -0.284109
     27 H8          1.7590   -3.6570    0.3360 hn        1 MOL      0.245069
     28 H9          2.1470   -6.6060    0.1360 h1        1 MOL      0.035304
     29 H10         1.2920   -4.9140   -2.1060 hc        1 MOL      0.041775
     30 H11        -0.4120   -4.8380   -0.0010 hc        1 MOL      0.023138
     31 H12        -0.5390   -6.5580   -0.0510 hc        1 MOL      0.023138
     32 H13         0.8930   -7.8940   -1.8710 hc        1 MOL     -0.002038
     33 H14         0.5540   -6.8190   -3.1810 hc        1 MOL     -0.002038
     34 H15         2.2130   -7.0740   -2.5790 hc        1 MOL     -0.002038
     35 H16        -1.6400   -6.3440   -2.2810 hc        1 MOL      0.094318
     36 H17        -2.4170   -5.1680   -1.1760 hc        1 MOL      0.094318
     37 H18        -1.1850   -4.5900   -2.3220 hc        1 MOL      0.094318
     38 N3          4.3120   -4.2380   -0.6510 n         1 MOL     -0.530449
     39 C13         5.4350   -3.8850   -1.5180 c3        1 MOL      0.101498
     40 C14         6.5450   -3.0110   -0.8910 c         1 MOL      0.492388
     41 O6          7.5970   -2.9400   -1.5390 o         1 MOL     -0.572712
     42 C15         4.8080   -3.2400   -2.7750 c3        1 MOL     -0.260093
     43 C16         3.6890   -2.1870   -2.4410 c         1 MOL      0.686931
     44 O7          3.8510   -1.3800   -1.4390 o         1 MOL     -0.656312
     45 O8          2.6130   -2.1430   -3.1280 o         1 MOL     -0.656312
     46 H19         3.9360   -3.4830   -0.0820 hn        1 MOL      0.218539
     47 H20         6.0000   -4.8000   -1.7390 h1        1 MOL      0.083263
     48 H21         4.3250   -3.9810   -3.4160 hc        1 MOL      0.072087
     49 H22         5.6610   -2.9010   -3.3740 hc        1 MOL      0.072087
     50 N4          6.3790   -2.3900    0.2540 n         1 MOL     -0.375962
     51 C17         7.4240   -1.4580    0.7840 c3        1 MOL     -0.062363
     52 C18         7.7140   -0.1580   -0.0140 c         1 MOL      0.329257
     53 O9          8.8300    0.4350    0.1030 o         1 MOL     -0.562445
     54 H23         5.4220   -2.2230    0.5360 hn        1 MOL      0.263526
     55 H24         8.3310   -2.0610    0.8330 h1        1 MOL      0.097562
     56 H25         7.2610   -1.2500    1.8400 h1        1 MOL      0.097562
     57 N5          6.8340    0.2360   -0.9550 n         1 MOL     -0.010899
     58 C19         7.0670    1.4460   -1.7400 c3        1 MOL     -0.148138
     59 C20         7.0000    2.7150   -0.9180 c         1 MOL      0.515495
     60 O10         7.5650    3.7410   -1.2900 o         1 MOL     -0.590298
     61 C21         5.9860    1.5730   -2.8270 c3        1 MOL     -0.256569
     62 C22         4.4600    1.7030   -2.4590 c         1 MOL      0.743207
     63 O11         4.0880    1.8000   -1.2720 o         1 MOL     -0.700842
     64 O12         3.6220    1.7110   -3.3760 o         1 MOL     -0.700842
     65 H26         5.9470   -0.2270   -1.0770 hn        1 MOL      0.154871
     66 H27         8.0660    1.3780   -2.1740 h1        1 MOL      0.129154
     67 H28         6.0730    0.8150   -3.6140 hc        1 MOL      0.066017
     68 H29         6.1320    2.4990   -3.3870 hc        1 MOL      0.066017
     69 N6          6.4190    2.7280    0.2890 n         1 MOL     -0.213843
     70 C23         6.4360    3.8330    1.2740 c3        1 MOL     -0.068786
     71 C24         5.2540    4.7840    1.3850 c         1 MOL      0.406284
     72 O13         5.3140    5.7990    2.1680 o         1 MOL     -0.574266
     73 H30         5.8560    1.9000    0.4550 hn        1 MOL      0.197248
     74 H31         7.3530    4.4230    1.2520 h1        1 MOL      0.076629
     75 H32         6.6130    3.2880    2.2010 h1        1 MOL      0.076629
     76 N7          4.1440    4.5110    0.6940 n         1 MOL     -0.142003
     77 C25         2.8150    4.9530    0.9720 c3        1 MOL      0.006599
     78 C26         1.7910    3.8000    1.0450 c         1 MOL      0.656628
     79 O14         2.0200    2.7190    0.4970 o         1 MOL     -0.600246
     80 C27         2.3590    6.0110   -0.0580 c3        1 MOL     -0.050840
     81 C28         3.4560    7.1020   -0.3800 c3        1 MOL     -0.166645
     82 C29         3.1310    8.0620   -1.5420 c         1 MOL      0.611721
     83 N8          3.1840    7.5830   -2.7330 n         1 MOL     -0.743922
     84 O15         2.7980    9.2320   -1.3770 o         1 MOL     -0.592228
     85 H33         4.2260    3.7020    0.0850 hn        1 MOL      0.170788
     86 H34         2.7580    5.3620    1.9890 h1        1 MOL      0.033631
     87 H35         1.4510    6.4820    0.3150 hc        1 MOL      0.050222
     88 H36         2.1560    5.4970   -0.9950 hc        1 MOL      0.050222
     89 H37         4.4220    6.6190   -0.5150 hc        1 MOL      0.063587
     90 H38         3.5460    7.6750    0.5480 hc        1 MOL      0.063587
     91 H39         3.6900    6.7280   -2.9350 hn        1 MOL      0.356080
     92 H40         2.8300    8.1970   -3.4560 hn        1 MOL      0.356080
     93 N9          0.6700    4.0300    1.7970 n         1 MOL     -0.636762
     94 C30        -0.5190    3.1630    1.8300 c3        1 MOL      0.064590
     95 C31        -1.4670    3.4930    0.6100 c         1 MOL      0.511886
     96 O16        -1.9230    4.5910    0.4740 o         1 MOL     -0.583288
     97 C32        -1.1960    3.1850    3.2620 c3        1 MOL      0.225007
     98 C33        -2.4110    2.1770    3.3470 c3        1 MOL     -0.132209
     99 C34        -0.3380    3.0930    4.5390 c3        1 MOL     -0.132209
    100 H41         0.4850    4.9400    2.1950 hn        1 MOL      0.323096
    101 H42        -0.1940    2.1470    1.6240 h1        1 MOL      0.131673
    102 H43        -1.7680    4.1070    3.3140 hc        1 MOL     -0.046005
    103 H44        -3.0390    2.2730    2.4620 hc        1 MOL      0.012307
    104 H45        -2.1320    1.1330    3.4960 hc        1 MOL      0.012307
    105 H46        -3.1690    2.4210    4.0840 hc        1 MOL      0.012307
    106 H47        -0.9860    3.0380    5.4150 hc        1 MOL      0.012307
    107 H48         0.3080    2.2160    4.5290 hc        1 MOL      0.012307
    108 H49         0.2610    4.0000    4.6040 hc        1 MOL      0.012307
    109 N10        -1.6920    2.4850   -0.2370 n         1 MOL     -0.390768
    110 C35        -2.7740    2.4210   -1.2980 c3        1 MOL      0.434144
    111 C36        -4.0930    1.9480   -0.6170 c         1 MOL      0.137376
    112 O17        -4.1220    1.4050    0.5030 o         1 MOL     -0.268897
    113 C37        -2.2450    1.6500   -2.5610 c3        1 MOL     -0.291137
    114 C38        -3.1490    1.7450   -3.8260 c         1 MOL      0.641694
    115 N11        -2.8470    1.0190   -4.8420 n         1 MOL     -0.738226
    116 O18        -4.1410    2.4140   -3.9250 o         1 MOL     -0.578890
    117 H50        -1.2690    1.6150    0.0370 hn        1 MOL      0.185644
    118 H51        -2.8900    3.3900   -1.7900 h1        1 MOL     -0.008427
    119 H52        -2.1250    0.6110   -2.2370 hc        1 MOL      0.096026
    120 H53        -1.2420    2.0620   -2.6850 hc        1 MOL      0.096026
    121 H54        -2.0360    0.4300   -4.7650 hn        1 MOL      0.372720
    122 H55        -3.4490    1.0600   -5.6470 hn        1 MOL      0.372720
    123 N12        -5.2860    2.1480   -1.2580 n         1 MOL     -0.401315
    124 C39        -6.5110    1.8510   -0.5400 c3        1 MOL      0.299666
    125 C40        -6.7370    0.3330   -0.2460 c         1 MOL      0.628825
    126 O19        -7.1330   -0.0270    0.8670 o         1 MOL     -0.549373
    127 C41        -7.6980    2.4200   -1.3080 c3        1 MOL     -0.245714
    128 C42        -9.0880    2.1080   -0.7550 ca        1 MOL      0.148216
    129 C43        -9.6710    2.8950    0.2280 ca        1 MOL     -0.289895
    130 C44        -9.8070    1.0250   -1.2810 ca        1 MOL     -0.289895
    131 C45       -10.9050    2.5550    0.8630 ca        1 MOL     -0.121908
    132 C46       -11.0670    0.6580   -0.6900 ca        1 MOL     -0.121908
    133 C47       -11.6080    1.4380    0.3400 ca        1 MOL      0.206164
    134 O20       -12.8250    1.1620    0.8490 oh        1 MOL     -0.476294
    135 H56        -5.2400    2.6400   -2.1420 hn        1 MOL      0.228445
    136 H57        -6.5240    2.4220    0.3940 h1        1 MOL      0.023116
    137 H58        -7.6730    2.0780   -2.3470 hc        1 MOL      0.070739
    138 H59        -7.5830    3.4970   -1.1670 hc        1 MOL      0.070739
    139 H60        -9.2170    3.8370    0.4770 ha        1 MOL      0.162814
    140 H61        -9.3870    0.3880   -2.0440 ha        1 MOL      0.162814
    141 H62       -11.3800    3.1710    1.6050 ha        1 MOL      0.115606
    142 H63       -11.6500   -0.1660   -1.0800 ha        1 MOL      0.115606
    143 H64       -13.1770    0.3990    0.3950 ho        1 MOL      0.354408
    144 N13        -6.3130   -0.5340   -1.2290 n         1 MOL     -0.521537
    145 C48        -6.2940   -2.0570   -1.1270 c3        1 MOL     -0.036240
    146 C49        -5.3800   -2.5140    0.0620 c         1 MOL      0.417928
    147 O21        -5.4340   -3.7100    0.5150 o         1 MOL     -0.529351
    148 C50        -5.8510   -2.6470   -2.5020 c3        1 MOL     -0.023502
    149 C51        -4.5060   -2.2990   -3.0860 c3        1 MOL     -0.086649
    150 C52        -4.2140   -3.0530   -4.4540 c         1 MOL      0.716804
    151 O22        -3.5920   -2.4120   -5.2830 o         1 MOL     -0.719870
    152 O23        -4.5840   -4.2170   -4.6500 o         1 MOL     -0.719870
    153 H65        -5.9180   -0.2130   -2.1010 hn        1 MOL      0.309064
    154 H66        -7.3240   -2.3690   -0.9530 h1        1 MOL      0.091088
    155 H67        -6.5200   -2.3800   -3.3310 hc        1 MOL      0.013737
    156 H68        -5.8510   -3.7270   -2.3660 hc        1 MOL      0.013737
    157 H69        -3.7100   -2.4990   -2.3860 hc        1 MOL     -0.022024
    158 H70        -4.6000   -1.2260   -3.2800 hc        1 MOL     -0.022024
    159 N14        -4.4550   -1.6790    0.6120 n         1 MOL     -0.212823
    160 C53        -3.6480   -1.8370    1.8360 c3        1 MOL     -0.044652
    161 C54        -4.4640   -1.2730    3.0990 c         1 MOL      0.382024
    162 O24        -4.4480   -1.8740    4.1480 o         1 MOL     -0.558222
    163 C55        -2.2470   -1.2640    1.6860 c3        1 MOL      0.155586
    164 C56        -1.5420   -1.9320    0.5190 c3        1 MOL     -0.199415
    165 C57        -0.1970   -1.2640    0.3030 c         1 MOL      0.847221
    166 O25         0.8030   -2.0030    0.1250 o         1 MOL     -0.794736
    167 O26        -0.0820   -0.0400    0.3060 o         1 MOL     -0.794736
    168 H71        -4.3250   -0.8390    0.0590 hn        1 MOL      0.197938
    169 H72        -3.5750   -2.9040    2.0410 h1        1 MOL      0.079646
    170 H73        -1.6610   -1.5070    2.5770 hc        1 MOL     -0.004402
    171 H74        -2.3690   -0.2020    1.4820 hc        1 MOL     -0.004402
    172 H75        -2.0840   -1.8890   -0.4260 hc        1 MOL      0.059466
    173 H76        -1.3550   -2.9400    0.8800 hc        1 MOL      0.059466
    174 N15        -5.1750   -0.1680    3.0110 n         1 MOL      0.126438
    175 C58        -5.8590    0.3700    4.1420 c3        1 MOL     -0.234432
    176 H77        -5.7410   -0.3010    4.9920 h1        1 MOL      0.072736
    177 H78        -5.4400    1.3460    4.3900 h1        1 MOL      0.072736
    178 H79        -6.9190    0.4770    3.9100 h1        1 MOL      0.072736
    179 H80        -5.3510    0.2430    2.1110 hn        1 MOL     -0.043557
    180 Ca1         2.4800    0.0640   -0.0510 Ca        1 MOL      1.750902
    181 O27         1.6370    0.2350    2.7020 oh        1 MOL     -0.878992
    182 H81         1.0900   -0.2510    3.3160 ho        1 MOL      0.407819
    183 H82         2.2940    0.6650    3.2500 ho        1 MOL      0.407819
    184 O28         4.4500    0.7620    1.8710 oh        1 MOL     -0.878992
    185 H83         4.7990   -0.0600    2.2060 ho        1 MOL      0.407819
    186 H84         4.2440    1.2730    2.6540 ho        1 MOL      0.407819
    187 O29         1.6200    0.1440   -2.4910 oh        1 MOL     -0.878992
    188 H85         1.8550   -0.7510   -2.7530 ho        1 MOL      0.407819
    189 H86         1.9260    0.6890   -3.2130 ho        1 MOL      0.407819
@<TRIPOS>BOND
     1    1    2 1   
     2    1    4 1   
     3    1    5 1   
     4    1    6 1   
     5    2    3 2   
     6    2    7 1   
     7    7    8 1   
     8    7   15 1   
     9    8    9 1   
    10    8   11 1   
    11    8   16 1   
    12    9   10 2   
    13    9   19 1   
    14   11   12 1   
    15   11   17 1   
    16   11   18 1   
    17   12   13 1   
    18   12   14 1   
    19   19   20 1   
    20   19   27 1   
    21   20   21 1   
    22   20   23 1   
    23   20   28 1   
    24   21   22 2   
    25   21   38 1   
    26   23   24 1   
    27   23   25 1   
    28   23   29 1   
    29   24   26 1   
    30   24   30 1   
    31   24   31 1   
    32   25   32 1   
    33   25   33 1   
    34   25   34 1   
    35   26   35 1   
    36   26   36 1   
    37   26   37 1   
    38   38   39 1   
    39   38   46 1   
    40   39   40 1   
    41   39   42 1   
    42   39   47 1   
    43   40   41 2   
    44   40   50 1   
    45   42   43 1   
    46   42   48 1   
    47   42   49 1   
    48   43   44 1   
    49   43   45 1   
    50   50   51 1   
    51   50   54 1   
    52   51   52 1   
    53   51   55 1   
    54   51   56 1   
    55   52   53 2   
    56   52   57 1   
    57   57   58 1   
    58   57   65 1   
    59   58   59 1   
    60   58   61 1   
    61   58   66 1   
    62   59   60 2   
    63   59   69 1   
    64   61   62 1   
    65   61   67 1   
    66   61   68 1   
    67   62   63 1   
    68   62   64 1   
    69   69   70 1   
    70   69   73 1   
    71   70   71 1   
    72   70   74 1   
    73   70   75 1   
    74   71   72 2   
    75   71   76 1   
    76   76   77 1   
    77   76   85 1   
    78   77   78 1   
    79   77   80 1   
    80   77   86 1   
    81   78   79 2   
    82   78   93 1   
    83   80   81 1   
    84   80   87 1   
    85   80   88 1   
    86   81   82 1   
    87   81   89 1   
    88   81   90 1   
    89   82   83 1   
    90   82   84 2   
    91   83   91 1   
    92   83   92 1   
    93   93   94 1   
    94   93  100 1   
    95   94   95 1   
    96   94   97 1   
    97   94  101 1   
    98   95   96 2   
    99   95  109 1   
   100   97   98 1   
   101   97   99 1   
   102   97  102 1   
   103   98  103 1   
   104   98  104 1   
   105   98  105 1   
   106   99  106 1   
   107   99  107 1   
   108   99  108 1   
   109  109  110 1   
   110  109  117 1   
   111  110  111 1   
   112  110  113 1   
   113  110  118 1   
   114  111  112 2   
   115  111  123 1   
   116  113  114 1   
   117  113  119 1   
   118  113  120 1   
   119  114  115 1   
   120  114  116 2   
   121  115  121 1   
   122  115  122 1   
   123  123  124 1   
   124  123  135 1   
   125  124  125 1   
   126  124  127 1   
   127  124  136 1   
   128  125  126 2   
   129  125  144 1   
   130  127  128 1   
   131  127  137 1   
   132  127  138 1   
   133  128  129 ar  
   134  128  130 ar  
   135  129  131 ar  
   136  129  139 1   
   137  130  132 ar  
   138  130  140 1   
   139  131  133 ar  
   140  131  141 1   
   141  132  133 ar  
   142  132  142 1   
   143  133  134 1   
   144  134  143 1   
   145  144  145 1   
   146  144  153 1   
   147  145  146 1   
   148  145  148 1   
   149  145  154 1   
   150  146  147 2   
   151  146  159 1   
   152  148  149 1   
   153  148  155 1   
   154  148  156 1   
   155  149  150 1   
   156  149  157 1   
   157  149  158 1   
   158  150  151 1   
   159  150  152 1   
   160  159  160 1   
   161  159  168 1   
   162  160  161 1   
   163  160  163 1   
   164  160  169 1   
   165  161  162 2   
   166  161  174 1   
   167  163  164 1   
   168  163  170 1   
   169  163  171 1   
   170  164  165 1   
   171  164  172 1   
   172  164  173 1   
   173  165  166 1   
   174  165  167 1   
   175  174  175 1   
   176  174  179 1   
   177  175  176 1   
   178  175  177 1   
   179  175  178 1   
   180  181  182 1   
   181  181  183 1   
   182  184  185 1   
   183  184  186 1   
   184  187  188 1   
   185  187  189 1   
@<TRIPOS>SUBSTRUCTURE
     1 MOL         1 TEMP              0 ****  ****    0 ROOT
