@<TRIPOS>MOLECULE
MOL
  189   185     1     0     0
SMALL
resp


@<TRIPOS>ATOM
      1 C1          0.5490   -3.5160    6.1380 c3        1 MOL     -0.378503
      2 C2          0.8850   -2.9110    4.7800 c         1 MOL      0.771807
      3 O1          0.8550   -1.7130    4.6400 o         1 MOL     -0.606627
      4 H1         -0.4480   -3.1970    6.4400 hc        1 MOL      0.094472
      5 H2          0.5760   -4.6030    6.0680 hc        1 MOL      0.094472
      6 H3          1.2770   -3.1810    6.8760 hc        1 MOL      0.094472
      7 N1          1.1490   -3.8150    3.7810 n         1 MOL     -0.640274
      8 C3          1.9080   -3.4600    2.5700 c3        1 MOL      0.186327
      9 C4          1.9240   -4.6680    1.5660 c         1 MOL      0.438261
     10 O2          1.8220   -5.7840    2.0200 o         1 MOL     -0.599873
     11 C5          3.3400   -3.2830    2.9530 c3        1 MOL     -0.184367
     12 C6          4.3180   -2.7690    1.8820 c         1 MOL      0.638784
     13 O3          5.5430   -3.0280    1.9130 o         1 MOL     -0.651143
     14 O4          3.8090   -2.1950    0.8620 o         1 MOL     -0.651143
     15 H4          1.0710   -4.8060    3.9670 hn        1 MOL      0.334550
     16 H5          1.4550   -2.6450    2.0010 h1        1 MOL     -0.024457
     17 H6          3.8310   -4.1520    3.3910 hc        1 MOL      0.042679
     18 H7          3.4360   -2.6290    3.8260 hc        1 MOL      0.042679
     19 N2          2.0900   -4.3980    0.3180 n         1 MOL     -0.097748
     20 C7          2.1290   -5.3280   -0.7840 c3        1 MOL     -0.145022
     21 C8          3.4050   -5.1740   -1.5990 c         1 MOL      0.461565
     22 O5          3.8380   -6.0580   -2.3480 o         1 MOL     -0.588352
     23 C9          0.8480   -4.9810   -1.6430 c3        1 MOL      0.445349
     24 C10        -0.3680   -5.2700   -0.7640 c3        1 MOL     -0.205667
     25 C11         0.8150   -5.8090   -2.9080 c3        1 MOL     -0.411555
     26 C12        -1.7390   -5.0690   -1.4410 c3        1 MOL     -0.328559
     27 H8          2.0860   -3.4310    0.0470 hn        1 MOL      0.351811
     28 H9          2.0320   -6.3710   -0.4940 h1        1 MOL      0.074925
     29 H10         0.7920   -3.9300   -1.9070 hc        1 MOL     -0.046028
     30 H11        -0.3470   -4.5280    0.0410 hc        1 MOL      0.056922
     31 H12        -0.2540   -6.2960   -0.4350 hc        1 MOL      0.056922
     32 H13        -0.0450   -5.4380   -3.4660 hc        1 MOL      0.081973
     33 H14         1.7020   -5.7160   -3.5360 hc        1 MOL      0.081973
     34 H15         0.6150   -6.8270   -2.5830 hc        1 MOL      0.081973
     35 H16        -1.7610   -4.0510   -1.8260 hc        1 MOL      0.102121
     36 H17        -1.9320   -5.9120   -2.1020 hc        1 MOL      0.102121
     37 H18        -2.4310   -5.1260   -0.5980 hc        1 MOL      0.102121
     38 N3          3.9790   -4.0080   -1.5920 n         1 MOL     -0.152628
     39 C13         4.9160   -3.5330   -2.5970 c3        1 MOL      0.021278
     40 C14         6.1450   -2.8190   -1.9830 c         1 MOL      0.357259
     41 O6          7.1880   -2.7100   -2.6970 o         1 MOL     -0.579283
     42 C15         4.1050   -2.5910   -3.6030 c3        1 MOL     -0.205263
     43 C16         3.2940   -1.4670   -3.0590 c         1 MOL      0.779923
     44 O7          3.6310   -0.9650   -2.0010 o         1 MOL     -0.733774
     45 O8          2.3460   -0.9200   -3.7220 o         1 MOL     -0.733774
     46 H19         3.7890   -3.3040   -0.8980 hn        1 MOL     -0.095264
     47 H20         5.2640   -4.4030   -3.1550 h1        1 MOL      0.105856
     48 H21         3.4020   -3.3120   -4.0170 hc        1 MOL      0.053191
     49 H22         4.7460   -2.2960   -4.4260 hc        1 MOL      0.053191
     50 N4          6.2550   -2.5120   -0.7280 n         1 MOL     -0.126974
     51 C17         7.4440   -1.9700   -0.1690 c3        1 MOL     -0.150046
     52 C18         7.7250   -0.5260   -0.5180 c         1 MOL      0.454485
     53 O9          8.8660   -0.1400   -0.3730 o         1 MOL     -0.594254
     54 H23         5.4230   -2.5330   -0.1450 hn        1 MOL      0.229897
     55 H24         8.2550   -2.5700   -0.5960 h1        1 MOL      0.094393
     56 H25         7.5390   -2.0280    0.9160 h1        1 MOL      0.094393
     57 N5          6.7610    0.2720   -1.0120 n         1 MOL     -0.095327
     58 C19         7.0720    1.5290   -1.6600 c3        1 MOL     -0.171849
     59 C20         7.3690    2.6770   -0.6510 c         1 MOL      0.509531
     60 O10         8.0370    3.6510   -0.9780 o         1 MOL     -0.543541
     61 C21         5.9620    1.8990   -2.6430 c3        1 MOL     -0.285122
     62 C22         4.5280    1.9200   -2.0320 c         1 MOL      0.830556
     63 O11         4.3540    1.6450   -0.8150 o         1 MOL     -0.708247
     64 O12         3.7250    2.4710   -2.8070 o         1 MOL     -0.708247
     65 H26         5.8200   -0.0970   -1.0060 hn        1 MOL      0.216358
     66 H27         7.8890    1.3560   -2.3500 h1        1 MOL      0.129636
     67 H28         6.0210    1.3150   -3.5620 hc        1 MOL      0.091864
     68 H29         6.1860    2.9430   -2.8900 hc        1 MOL      0.091864
     69 N6          6.6750    2.5480    0.5190 n         1 MOL     -0.284213
     70 C23         6.5740    3.6810    1.4400 c3        1 MOL     -0.247477
     71 C24         5.3260    4.4780    1.4880 c         1 MOL      0.586087
     72 O13         5.1710    5.3460    2.3210 o         1 MOL     -0.612639
     73 H30         5.9030    1.8890    0.5420 hn        1 MOL      0.186197
     74 H31         7.4510    4.3180    1.3290 h1        1 MOL      0.112337
     75 H32         6.6870    3.1590    2.3930 h1        1 MOL      0.112337
     76 N7          4.4050    4.2530    0.5540 n         1 MOL     -0.263887
     77 C25         3.0170    4.7420    0.7980 c3        1 MOL     -0.057543
     78 C26         2.0310    3.6800    1.2500 c         1 MOL      0.576416
     79 O14         2.3160    2.4610    1.1480 o         1 MOL     -0.551742
     80 C27         2.4290    5.3260   -0.5110 c3        1 MOL     -0.029274
     81 C28         3.1790    6.7120   -0.7830 c3        1 MOL     -0.212963
     82 C29         2.8180    7.3970   -2.1120 c         1 MOL      0.580053
     83 N8          3.2240    6.8640   -3.2470 n         1 MOL     -0.754202
     84 O15         1.9610    8.3390   -2.1190 o         1 MOL     -0.592503
     85 H33         4.6500    3.4550   -0.0190 hn        1 MOL      0.216076
     86 H34         2.9700    5.5170    1.5580 h1        1 MOL      0.091288
     87 H35         1.3520    5.4000   -0.3420 hc        1 MOL      0.071231
     88 H36         2.5850    4.6320   -1.3360 hc        1 MOL      0.071231
     89 H37         4.2600    6.5900   -0.8410 hc        1 MOL      0.074902
     90 H38         3.1330    7.4400    0.0260 hc        1 MOL      0.074902
     91 H39         3.8600    6.0780   -3.2620 hn        1 MOL      0.368090
     92 H40         2.7360    7.2450   -4.0440 hn        1 MOL      0.368090
     93 N9          0.8620    4.0620    1.7500 n         1 MOL     -0.484022
     94 C30        -0.3170    3.1460    2.0070 c3        1 MOL     -0.078455
     95 C31        -1.3170    3.2050    0.8610 c         1 MOL      0.518673
     96 O16        -1.8480    4.2500    0.6170 o         1 MOL     -0.621830
     97 C32        -1.0080    3.4920    3.3040 c3        1 MOL      0.390956
     98 C33        -2.2040    2.7340    3.5870 c3        1 MOL     -0.373833
     99 C34        -0.0200    3.1890    4.4290 c3        1 MOL     -0.373833
    100 H41         0.8470    5.0030    2.1110 hn        1 MOL      0.283862
    101 H42         0.0420    2.1290    2.1320 h1        1 MOL      0.152078
    102 H43        -1.1480    4.5720    3.3930 hc        1 MOL     -0.035937
    103 H44        -1.9990    1.6960    3.3350 hc        1 MOL      0.072814
    104 H45        -2.6160    2.8920    4.5860 hc        1 MOL      0.072814
    105 H46        -3.0820    2.9390    2.9800 hc        1 MOL      0.072814
    106 H47         0.1330    2.1130    4.3550 hc        1 MOL      0.072814
    107 H48         0.8890    3.7810    4.3180 hc        1 MOL      0.072814
    108 H49        -0.5380    3.4150    5.3650 hc        1 MOL      0.072814
    109 N10        -1.8120    2.1120    0.3510 n         1 MOL     -0.007864
    110 C35        -2.8190    2.0370   -0.7450 c3        1 MOL     -0.016456
    111 C36        -4.1750    1.9210   -0.0580 c         1 MOL      0.324830
    112 O17        -4.2850    1.3440    1.0290 o         1 MOL     -0.275569
    113 C37        -2.3110    0.8320   -1.6010 c3        1 MOL     -0.018256
    114 C38        -2.8340    0.8870   -3.0630 c         1 MOL      0.608982
    115 N11        -2.4370   -0.0110   -3.9610 n         1 MOL     -0.762755
    116 O18        -3.5870    1.7960   -3.5140 o         1 MOL     -0.604432
    117 H50        -1.4000    1.2170    0.5850 hn        1 MOL     -0.016846
    118 H51        -2.7540    2.9370   -1.3610 h1        1 MOL      0.089115
    119 H52        -2.6230   -0.1370   -1.2150 hc        1 MOL      0.044646
    120 H53        -1.2260    0.9490   -1.5920 hc        1 MOL      0.044646
    121 H54        -1.6960   -0.6420   -3.6960 hn        1 MOL      0.381762
    122 H55        -2.8260    0.1630   -4.8730 hn        1 MOL      0.381762
    123 N12        -5.1830    2.3840   -0.7180 n         1 MOL     -0.422234
    124 C39        -6.5590    1.9550   -0.4010 c3        1 MOL      0.367315
    125 C40        -6.7280    0.4040   -0.2020 c         1 MOL      0.488854
    126 O19        -7.5170   -0.0360    0.6160 o         1 MOL     -0.498512
    127 C41        -7.4400    2.5520   -1.5520 c3        1 MOL     -0.393221
    128 C42        -8.9280    2.3790   -1.2760 ca        1 MOL      0.361580
    129 C43        -9.5070    2.6310    0.0080 ca        1 MOL     -0.401485
    130 C44        -9.7950    2.1550   -2.4050 ca        1 MOL     -0.401485
    131 C45       -10.8530    2.3880    0.1530 ca        1 MOL     -0.103614
    132 C46       -11.1620    1.8770   -2.1320 ca        1 MOL     -0.103614
    133 C47       -11.6960    2.0120   -0.8670 ca        1 MOL      0.232000
    134 O20       -13.0330    1.8080   -0.6360 oh        1 MOL     -0.513605
    135 H56        -5.1610    3.0680   -1.4540 hn        1 MOL      0.291315
    136 H57        -6.7300    2.3280    0.6040 h1        1 MOL     -0.025786
    137 H58        -7.2000    2.0800   -2.5090 hc        1 MOL      0.106477
    138 H59        -7.3130    3.6380   -1.5930 hc        1 MOL      0.106477
    139 H60        -8.9270    2.9460    0.8610 ha        1 MOL      0.191883
    140 H61        -9.3600    2.1830   -3.4030 ha        1 MOL      0.191883
    141 H62       -11.3220    2.5240    1.1120 ha        1 MOL      0.115306
    142 H63       -11.7290    1.5010   -2.9670 ha        1 MOL      0.115306
    143 H64       -13.6190    1.8620   -1.3930 ho        1 MOL      0.361049
    144 N13        -5.8960   -0.4060   -0.8520 n         1 MOL     -0.256984
    145 C48        -5.8300   -1.8130   -0.7010 c3        1 MOL     -0.026996
    146 C49        -5.0800   -2.3700    0.5410 c         1 MOL      0.373792
    147 O21        -5.1500   -3.5140    0.8600 o         1 MOL     -0.502467
    148 C50        -5.0150   -2.3880   -1.8450 c3        1 MOL      0.024533
    149 C51        -5.4060   -3.7630   -2.4180 c3        1 MOL     -0.195455
    150 C52        -6.8840   -3.7630   -2.5900 c         1 MOL      0.718836
    151 O22        -7.4580   -3.0210   -3.3690 o         1 MOL     -0.740321
    152 O23        -7.5120   -4.6750   -1.8970 o         1 MOL     -0.740321
    153 H65        -5.3910    0.0330   -1.6050 hn        1 MOL      0.187090
    154 H66        -6.8370   -2.2220   -0.7510 h1        1 MOL      0.131601
    155 H67        -3.9360   -2.4040   -1.6830 hc        1 MOL      0.007980
    156 H68        -5.1390   -1.7150   -2.6980 hc        1 MOL      0.007980
    157 H69        -5.1080   -4.5620   -1.7320 hc        1 MOL      0.014387
    158 H70        -4.8200   -3.9350   -3.3160 hc        1 MOL      0.014387
    159 N14        -4.2650   -1.5030    1.1290 n         1 MOL      0.307537
    160 C53        -3.4200   -1.7500    2.2220 c3        1 MOL     -0.027889
    161 C54        -4.0060   -1.1510    3.5310 c         1 MOL      0.400007
    162 O24        -4.0940   -1.8670    4.5440 o         1 MOL     -0.540670
    163 C55        -2.0410   -1.1520    1.9260 c3        1 MOL     -0.064518
    164 C56        -1.2530   -1.8820    0.9050 c3        1 MOL     -0.113005
    165 C57        -0.0470   -1.1480    0.4150 c         1 MOL      0.777621
    166 O25         0.7790   -1.7440   -0.3330 o         1 MOL     -0.745717
    167 O26         0.1520    0.0440    0.8320 o         1 MOL     -0.745717
    168 H71        -4.3190   -0.5330    0.8440 hn        1 MOL     -0.543197
    169 H72        -3.3180   -2.8320    2.2780 h1        1 MOL      0.050049
    170 H73        -1.4880   -1.3430    2.8460 hc        1 MOL      0.060506
    171 H74        -2.1940   -0.0820    1.7710 hc        1 MOL      0.060506
    172 H75        -1.8980   -1.9300    0.0260 hc        1 MOL      0.044756
    173 H76        -0.9890   -2.8940    1.2190 hc        1 MOL      0.044756
    174 N15        -4.6570    0.0630    3.5050 n         1 MOL     -0.158383
    175 C58        -5.4440    0.7950    4.5510 c3        1 MOL     -0.169276
    176 H77        -6.4100    1.0870    4.1390 h1        1 MOL      0.075244
    177 H78        -5.5980    0.1440    5.4120 h1        1 MOL      0.075244
    178 H79        -4.8970    1.6850    4.8610 h1        1 MOL      0.075244
    179 H80        -4.5880    0.5870    2.6430 hn        1 MOL      0.197153
    180 Ca1         2.6750    0.0160    0.3610 Ca        1 MOL      1.761389
    181 O27         2.2670   -0.2620    2.9540 oh        1 MOL     -0.951891
    182 H81         2.6270    0.3590    3.5930 ho        1 MOL      0.445026
    183 H82         1.6980   -0.8370    3.4690 ho        1 MOL      0.445026
    184 O28         4.8440    0.8190    1.9790 oh        1 MOL     -0.951891
    185 H83         4.7440    1.4560    2.6840 ho        1 MOL      0.445026
    186 H84         5.6280    0.3170    2.2170 ho        1 MOL      0.445026
    187 O29         1.6410    1.2260   -2.0170 oh        1 MOL     -0.951891
    188 H85         2.1370    1.9620   -2.3470 ho        1 MOL      0.445026
    189 H86         1.9250    0.4820   -2.5560 ho        1 MOL      0.445026
@<TRIPOS>BOND
     1    1    2 1   
     2    1    4 1   
     3    1    5 1   
     4    1    6 1   
     5    2    3 2   
     6    2    7 1   
     7    7    8 1   
     8    7   15 1   
     9    8    9 1   
    10    8   11 1   
    11    8   16 1   
    12    9   10 2   
    13    9   19 1   
    14   11   12 1   
    15   11   17 1   
    16   11   18 1   
    17   12   13 1   
    18   12   14 1   
    19   19   20 1   
    20   19   27 1   
    21   20   21 1   
    22   20   23 1   
    23   20   28 1   
    24   21   22 2   
    25   21   38 1   
    26   23   24 1   
    27   23   25 1   
    28   23   29 1   
    29   24   26 1   
    30   24   30 1   
    31   24   31 1   
    32   25   32 1   
    33   25   33 1   
    34   25   34 1   
    35   26   35 1   
    36   26   36 1   
    37   26   37 1   
    38   38   39 1   
    39   38   46 1   
    40   39   40 1   
    41   39   42 1   
    42   39   47 1   
    43   40   41 2   
    44   40   50 1   
    45   42   43 1   
    46   42   48 1   
    47   42   49 1   
    48   43   44 1   
    49   43   45 1   
    50   50   51 1   
    51   50   54 1   
    52   51   52 1   
    53   51   55 1   
    54   51   56 1   
    55   52   53 2   
    56   52   57 1   
    57   57   58 1   
    58   57   65 1   
    59   58   59 1   
    60   58   61 1   
    61   58   66 1   
    62   59   60 2   
    63   59   69 1   
    64   61   62 1   
    65   61   67 1   
    66   61   68 1   
    67   62   63 1   
    68   62   64 1   
    69   69   70 1   
    70   69   73 1   
    71   70   71 1   
    72   70   74 1   
    73   70   75 1   
    74   71   72 2   
    75   71   76 1   
    76   76   77 1   
    77   76   85 1   
    78   77   78 1   
    79   77   80 1   
    80   77   86 1   
    81   78   79 2   
    82   78   93 1   
    83   80   81 1   
    84   80   87 1   
    85   80   88 1   
    86   81   82 1   
    87   81   89 1   
    88   81   90 1   
    89   82   83 1   
    90   82   84 2   
    91   83   91 1   
    92   83   92 1   
    93   93   94 1   
    94   93  100 1   
    95   94   95 1   
    96   94   97 1   
    97   94  101 1   
    98   95   96 2   
    99   95  109 1   
   100   97   98 1   
   101   97   99 1   
   102   97  102 1   
   103   98  103 1   
   104   98  104 1   
   105   98  105 1   
   106   99  106 1   
   107   99  107 1   
   108   99  108 1   
   109  109  110 1   
   110  109  117 1   
   111  110  111 1   
   112  110  113 1   
   113  110  118 1   
   114  111  112 2   
   115  111  123 1   
   116  113  114 1   
   117  113  119 1   
   118  113  120 1   
   119  114  115 1   
   120  114  116 2   
   121  115  121 1   
   122  115  122 1   
   123  123  124 1   
   124  123  135 1   
   125  124  125 1   
   126  124  127 1   
   127  124  136 1   
   128  125  126 2   
   129  125  144 1   
   130  127  128 1   
   131  127  137 1   
   132  127  138 1   
   133  128  129 ar  
   134  128  130 ar  
   135  129  131 ar  
   136  129  139 1   
   137  130  132 ar  
   138  130  140 1   
   139  131  133 ar  
   140  131  141 1   
   141  132  133 ar  
   142  132  142 1   
   143  133  134 1   
   144  134  143 1   
   145  144  145 1   
   146  144  153 1   
   147  145  146 1   
   148  145  148 1   
   149  145  154 1   
   150  146  147 2   
   151  146  159 1   
   152  148  149 1   
   153  148  155 1   
   154  148  156 1   
   155  149  150 1   
   156  149  157 1   
   157  149  158 1   
   158  150  151 1   
   159  150  152 1   
   160  159  160 1   
   161  159  168 1   
   162  160  161 1   
   163  160  163 1   
   164  160  169 1   
   165  161  162 2   
   166  161  174 1   
   167  163  164 1   
   168  163  170 1   
   169  163  171 1   
   170  164  165 1   
   171  164  172 1   
   172  164  173 1   
   173  165  166 1   
   174  165  167 1   
   175  174  175 1   
   176  174  179 1   
   177  175  176 1   
   178  175  177 1   
   179  175  178 1   
   180  181  182 1   
   181  181  183 1   
   182  184  185 1   
   183  184  186 1   
   184  187  188 1   
   185  187  189 1   
@<TRIPOS>SUBSTRUCTURE
     1 MOL         1 TEMP              0 ****  ****    0 ROOT
