@<TRIPOS>MOLECULE
MOL
  183   181     1     0     0
SMALL
resp


@<TRIPOS>ATOM
      1 C1         -0.4700    0.3690    6.2620 c3        1 MOL     -0.288639
      2 C2         -0.8750    0.6880    4.7810 c         1 MOL      0.733265
      3 O1         -0.0960    1.3150    4.0520 o         1 MOL     -0.612958
      4 H1         -1.2880   -0.1550    6.7570 hc        1 MOL      0.066959
      5 H2          0.4200   -0.2610    6.2690 hc        1 MOL      0.066959
      6 H3         -0.2620    1.2980    6.7910 hc        1 MOL      0.066959
      7 N1         -1.9920    0.2410    4.3340 n         1 MOL     -0.693400
      8 C3         -2.5770    0.5220    3.0530 c3        1 MOL      0.469538
      9 C4         -2.9930    1.9980    3.0300 c         1 MOL      0.304837
     10 O2         -3.7940    2.5000    3.8580 o         1 MOL     -0.553390
     11 C5         -3.8260   -0.2880    2.8730 c3        1 MOL     -0.364585
     12 C6         -4.6980    0.0240    1.6790 c         1 MOL      0.692652
     13 O3         -5.9510    0.0140    1.9180 o         1 MOL     -0.623661
     14 O4         -4.2060    0.5980    0.6800 o         1 MOL     -0.623661
     15 H4         -2.6120   -0.1870    5.0180 hn        1 MOL      0.339269
     16 H5         -1.9080    0.2360    2.2480 h1        1 MOL     -0.001922
     17 H6         -4.3580   -0.3750    3.8170 hc        1 MOL      0.046765
     18 H7         -3.4030   -1.2750    2.6730 hc        1 MOL      0.046765
     19 N2         -2.4390    2.6910    2.0070 n         1 MOL      0.050730
     20 C7         -2.6420    4.1450    1.7230 c3        1 MOL     -0.290105
     21 C8         -3.5500    4.5380    0.5350 c         1 MOL      0.534859
     22 O5         -3.7830    5.7300    0.2600 o         1 MOL     -0.565766
     23 C9         -1.4350    5.0440    1.7540 c3        1 MOL      0.316426
     24 C10        -0.5610    4.7530    0.5790 c3        1 MOL     -0.100516
     25 C11        -0.5740    4.9110    3.0000 c3        1 MOL     -0.213404
     26 C12         0.6360    5.7410    0.3560 c3        1 MOL     -0.339876
     27 H8         -1.8060    2.1520    1.4270 hn        1 MOL      0.123857
     28 H9         -3.3110    4.4970    2.5010 h1        1 MOL      0.089268
     29 H10        -1.7060    6.1000    1.6970 hc        1 MOL     -0.058338
     30 H11        -1.1250    4.8830   -0.3430 hc        1 MOL      0.123819
     31 H12        -0.0750    3.7820    0.7290 hc        1 MOL      0.123819
     32 H13        -0.2050    3.8880    3.0770 hc        1 MOL      0.037444
     33 H14         0.3080    5.5440    3.0410 hc        1 MOL      0.037444
     34 H15        -1.0880    5.2350    3.9110 hc        1 MOL      0.037444
     35 H16         1.3430    5.6550    1.1750 hc        1 MOL      0.082135
     36 H17         1.0240    5.5060   -0.6310 hc        1 MOL      0.082135
     37 H18         0.2650    6.7610    0.2920 hc        1 MOL      0.082135
     38 N3         -4.2970    3.6330   -0.1440 n         1 MOL     -0.238828
     39 C13        -5.2180    3.7980   -1.2440 c3        1 MOL     -0.235092
     40 C14        -6.6740    3.4360   -0.9560 c         1 MOL      0.559709
     41 O6         -7.5700    3.7550   -1.6330 o         1 MOL     -0.539726
     42 C15        -4.6380    2.9170   -2.4260 c3        1 MOL      0.021956
     43 C16        -3.1450    3.0960   -2.7170 c         1 MOL      0.633231
     44 O7         -2.7940    4.1600   -3.2540 o         1 MOL     -0.677945
     45 O8         -2.3950    2.1410   -2.4970 o         1 MOL     -0.677945
     46 H19        -4.1740    2.6670    0.1300 hn        1 MOL      0.154531
     47 H20        -5.2380    4.8210   -1.6100 h1        1 MOL      0.132657
     48 H21        -5.2330    3.0510   -3.3230 hc        1 MOL     -0.012098
     49 H22        -4.7990    1.9010   -2.0630 hc        1 MOL     -0.012098
     50 N4         -6.9480    2.6850    0.1060 n         1 MOL     -0.281629
     51 C17        -8.2810    2.0550    0.4020 c3        1 MOL     -0.262875
     52 C18        -8.4570    0.9070   -0.6160 c         1 MOL      0.619395
     53 O9         -9.4950    0.8680   -1.2640 o         1 MOL     -0.589835
     54 H23        -6.1180    2.3310    0.5610 hn        1 MOL      0.150710
     55 H24        -8.9530    2.8600    0.1290 h1        1 MOL      0.116389
     56 H25        -8.4330    1.6450    1.4110 h1        1 MOL      0.116389
     57 N5         -7.4820    0.0200   -0.7060 n         1 MOL     -0.549129
     58 C19        -7.5860   -1.2070   -1.5070 c3        1 MOL      0.049266
     59 C20        -7.2150   -2.4790   -0.7880 c         1 MOL      0.369496
     60 O10        -7.1170   -3.5530   -1.3470 o         1 MOL     -0.552150
     61 C21        -6.6930   -1.0410   -2.7550 c3        1 MOL     -0.308081
     62 C22        -5.2220   -0.9760   -2.4410 c         1 MOL      0.832431
     63 O11        -4.3920   -0.5050   -3.2740 o         1 MOL     -0.816223
     64 O12        -4.7740   -1.4450   -1.4130 o         1 MOL     -0.816223
     65 H26        -6.6010    0.2760   -0.2780 hn        1 MOL      0.612889
     66 H27        -8.6100   -1.2780   -1.8410 h1        1 MOL      0.085540
     67 H28        -7.0310   -0.1070   -3.2130 hc        1 MOL      0.095150
     68 H29        -6.8950   -1.7760   -3.5240 hc        1 MOL      0.095150
     69 N6         -6.9610   -2.3110    0.4990 n         1 MOL     -0.109890
     70 C23        -6.6870   -3.3160    1.5500 c3        1 MOL     -0.200690
     71 C24        -5.3510   -4.0160    1.4430 c         1 MOL      0.508983
     72 O13        -5.2510   -5.0440    2.1350 o         1 MOL     -0.588658
     73 H30        -6.9080   -1.3480    0.8000 hn        1 MOL      0.037789
     74 H31        -7.4720   -4.0500    1.3900 h1        1 MOL      0.103881
     75 H32        -6.7680   -2.9050    2.5520 h1        1 MOL      0.103881
     76 N7         -4.4270   -3.5820    0.5730 n         1 MOL     -0.155979
     77 C25        -3.1670   -4.3590    0.4170 c3        1 MOL      0.026829
     78 C26        -1.9670   -3.3720    0.5360 c         1 MOL      0.516724
     79 O14        -2.1770   -2.1620    0.4480 o         1 MOL     -0.577536
     80 C27        -3.0970   -5.2810   -0.7990 c3        1 MOL     -0.164610
     81 C28        -3.5360   -4.6210   -2.1410 c3        1 MOL     -0.034819
     82 C29        -2.3610   -3.8220   -2.6160 c         1 MOL      0.372146
     83 N8         -1.3370   -4.4470   -3.1430 n         1 MOL     -0.664885
     84 O15        -2.3190   -2.6230   -2.4360 o         1 MOL     -0.398379
     85 H33        -4.6490   -2.8450   -0.0760 hn        1 MOL      0.286285
     86 H34        -3.1170   -4.9650    1.3260 h1        1 MOL      0.020165
     87 H35        -3.7660   -6.1270   -0.6990 hc        1 MOL      0.045496
     88 H36        -2.0460   -5.5440   -0.9540 hc        1 MOL      0.045496
     89 H37        -4.4460   -4.0730   -1.8940 hc        1 MOL      0.056480
     90 H38        -3.7520   -5.4450   -2.8300 hc        1 MOL      0.056480
     91 H39        -1.5020   -5.3650   -3.5430 hn        1 MOL      0.326141
     92 H40        -0.5580   -3.8840   -3.4430 hn        1 MOL      0.326141
     93 N9         -0.7520   -3.9080    0.7960 n         1 MOL     -0.379091
     94 C30         0.4500   -3.1730    1.1560 c3        1 MOL     -0.069093
     95 C31         1.5730   -3.4430    0.2570 c         1 MOL      0.473426
     96 O16         2.3160   -4.4510    0.4760 o         1 MOL     -0.549751
     97 C32         0.8670   -3.4490    2.6280 c3        1 MOL      0.348260
     98 C33         2.1990   -2.8300    3.0420 c3        1 MOL     -0.358654
     99 C34        -0.2130   -3.0470    3.6880 c3        1 MOL     -0.358654
    100 H41        -0.7580   -4.9060    0.9490 hn        1 MOL      0.271778
    101 H42         0.2630   -2.1030    1.0890 h1        1 MOL      0.183317
    102 H43         0.9880   -4.5270    2.6960 hc        1 MOL     -0.056449
    103 H44         2.2890   -2.5010    4.0790 hc        1 MOL      0.073594
    104 H45         2.9780   -3.5660    2.8410 hc        1 MOL      0.073594
    105 H46         2.4440   -2.0460    2.3250 hc        1 MOL      0.073594
    106 H47        -0.3240   -1.9660    3.6980 hc        1 MOL      0.073594
    107 H48        -1.1660   -3.5110    3.4310 hc        1 MOL      0.073594
    108 H49         0.1280   -3.3970    4.6600 hc        1 MOL      0.073594
    109 N10         1.9280   -2.5410   -0.7140 n         1 MOL     -0.523514
    110 C35         3.2780   -2.6550   -1.3750 c3        1 MOL      0.158775
    111 C36         4.3150   -2.0200   -0.4780 c         1 MOL      0.275533
    112 O17         3.9630   -1.3730    0.4500 o         1 MOL     -0.083482
    113 C37         3.2470   -1.9660   -2.7260 c3        1 MOL     -0.382582
    114 C38         2.1900   -2.5000   -3.6970 c         1 MOL      0.734712
    115 N11         0.9410   -2.2200   -3.4870 n         1 MOL     -0.729596
    116 O18         2.5580   -3.0740   -4.7300 o         1 MOL     -0.612367
    117 H50         1.5120   -1.6240   -0.6870 hn        1 MOL      0.438899
    118 H51         3.5320   -3.7040   -1.4520 h1        1 MOL      0.067979
    119 H52         4.2280   -2.0030   -3.2000 hc        1 MOL      0.110409
    120 H53         2.9750   -0.9240   -2.5720 hc        1 MOL      0.110409
    121 H54         0.7050   -1.8280   -2.5790 hn        1 MOL      0.319479
    122 H55         0.3270   -2.2350   -4.2850 hn        1 MOL      0.319479
    123 N12         5.5680   -2.1870   -0.8960 n         1 MOL     -0.555545
    124 C39         6.8620   -1.5610   -0.3540 c3        1 MOL      0.342746
    125 C40         6.7840   -0.1010   -0.0630 c         1 MOL      0.419489
    126 O19         7.0370    0.2700    1.0900 o         1 MOL     -0.554176
    127 C41         8.0960   -1.9130   -1.2450 c3        1 MOL     -0.381351
    128 C42         9.3580   -1.6870   -0.4470 ca        1 MOL      0.129163
    129 C43         9.5700   -2.4960    0.7010 ca        1 MOL     -0.191101
    130 C44        10.3820   -0.8360   -0.8940 ca        1 MOL     -0.191101
    131 C45        10.7970   -2.4870    1.3480 ca        1 MOL     -0.241092
    132 C46        11.6130   -0.7520   -0.1760 ca        1 MOL     -0.241092
    133 C47        11.8240   -1.5540    0.9220 ca        1 MOL      0.340208
    134 O20        13.1040   -1.6030    1.3710 oh        1 MOL     -0.515848
    135 H56         5.7180   -2.9130   -1.5790 hn        1 MOL      0.301895
    136 H57         6.9440   -2.0630    0.6100 h1        1 MOL      0.031724
    137 H58         8.2150   -1.2720   -2.1280 hc        1 MOL      0.113519
    138 H59         8.0620   -2.9770   -1.4710 hc        1 MOL      0.113519
    139 H60         8.7750   -3.1700    0.9850 ha        1 MOL      0.150870
    140 H61        10.2410   -0.2250   -1.7750 ha        1 MOL      0.150870
    141 H62        11.1280   -3.1440    2.1350 ha        1 MOL      0.140710
    142 H63        12.4430   -0.2450   -0.6440 ha        1 MOL      0.140710
    143 H64        13.6060   -0.8710    1.0020 ho        1 MOL      0.364075
    144 N13         6.4230    0.7180   -1.0290 n         1 MOL     -0.189858
    145 C48         6.3260    2.1560   -0.9190 c3        1 MOL     -0.069086
    146 C49         5.1570    2.5470    0.0470 c         1 MOL      0.441162
    147 O21         5.1110    3.7430    0.3440 o         1 MOL     -0.524475
    148 C50         6.3560    2.7950   -2.3310 c3        1 MOL     -0.234538
    149 C51         6.9000    4.2140   -2.3020 c3        1 MOL      0.010048
    150 C52         7.2620    4.6820   -3.6720 c         1 MOL      0.671999
    151 O22         6.4090    5.2940   -4.3630 o         1 MOL     -0.748445
    152 O23         8.4440    4.4820   -4.0750 o         1 MOL     -0.748445
    153 H65         6.4010    0.3000   -1.9500 hn        1 MOL      0.178739
    154 H66         7.2470    2.4790   -0.4360 h1        1 MOL      0.118450
    155 H67         5.3420    2.7870   -2.7290 hc        1 MOL      0.083300
    156 H68         7.1590    2.2370   -2.8240 hc        1 MOL      0.083300
    157 H69         7.7770    4.3390   -1.6790 hc        1 MOL     -0.004070
    158 H70         6.1890    4.9580   -1.9380 hc        1 MOL     -0.004070
    159 N14         4.2270    1.6410    0.4760 n         1 MOL     -0.088091
    160 C53         3.3140    1.8280    1.5730 c3        1 MOL     -0.052914
    161 C54         3.8460    1.3550    2.9500 c         1 MOL      0.380407
    162 O24         3.8240    2.0690    3.9890 o         1 MOL     -0.533445
    163 C55         1.9350    1.1620    1.2860 c3        1 MOL      0.367968
    164 C56         1.4250    1.3620   -0.1120 c3        1 MOL     -0.359555
    165 C57         0.0760    0.7310   -0.3030 c         1 MOL      0.945887
    166 O25        -0.9480    1.3100   -0.0110 o         1 MOL     -0.914121
    167 O26         0.0660   -0.4080   -0.8400 o         1 MOL     -0.914121
    168 H71         4.3190    0.7250    0.0600 hn        1 MOL      0.021333
    169 H72         3.0330    2.8870    1.5510 h1        1 MOL      0.090249
    170 H73         1.2180    1.6640    1.9440 hc        1 MOL     -0.082507
    171 H74         1.9640    0.0990    1.5250 hc        1 MOL     -0.082507
    172 H75         2.0840    0.8270   -0.8050 hc        1 MOL      0.068427
    173 H76         1.5810    2.3950   -0.4200 hc        1 MOL      0.068427
    174 N15         4.2810    0.0830    2.8800 n         1 MOL      0.012741
    175 C58         5.0630   -0.6270    3.9180 c3        1 MOL     -0.325301
    176 H77         5.7200   -1.3560    3.4430 h1        1 MOL      0.112669
    177 H78         5.6640    0.0920    4.4770 h1        1 MOL      0.112669
    178 H79         4.3840   -1.1400    4.5990 h1        1 MOL      0.112669
    179 H80         4.1440   -0.3820    2.0000 hn        1 MOL     -0.030930
    180 Ca1        -2.5350   -0.1810   -1.3940 Ca        1 MOL      1.751274
    181 O27        -1.3770   -0.1610   -3.8160 oh        1 MOL     -0.722814
    182 H81        -0.8550    0.4920   -4.2770 ho        1 MOL      0.370425
    183 H82        -1.3300   -0.9420   -4.3780 ho        1 MOL      0.370425
@<TRIPOS>BOND
     1    1    2 1   
     2    1    4 1   
     3    1    5 1   
     4    1    6 1   
     5    2    3 2   
     6    2    7 1   
     7    7    8 1   
     8    7   15 1   
     9    8    9 1   
    10    8   11 1   
    11    8   16 1   
    12    9   10 2   
    13    9   19 1   
    14   11   12 1   
    15   11   17 1   
    16   11   18 1   
    17   12   13 1   
    18   12   14 1   
    19   19   20 1   
    20   19   27 1   
    21   20   21 1   
    22   20   23 1   
    23   20   28 1   
    24   21   22 2   
    25   21   38 1   
    26   23   24 1   
    27   23   25 1   
    28   23   29 1   
    29   24   26 1   
    30   24   30 1   
    31   24   31 1   
    32   25   32 1   
    33   25   33 1   
    34   25   34 1   
    35   26   35 1   
    36   26   36 1   
    37   26   37 1   
    38   38   39 1   
    39   38   46 1   
    40   39   40 1   
    41   39   42 1   
    42   39   47 1   
    43   40   41 2   
    44   40   50 1   
    45   42   43 1   
    46   42   48 1   
    47   42   49 1   
    48   43   44 1   
    49   43   45 1   
    50   50   51 1   
    51   50   54 1   
    52   51   52 1   
    53   51   55 1   
    54   51   56 1   
    55   52   53 2   
    56   52   57 1   
    57   57   58 1   
    58   57   65 1   
    59   58   59 1   
    60   58   61 1   
    61   58   66 1   
    62   59   60 2   
    63   59   69 1   
    64   61   62 1   
    65   61   67 1   
    66   61   68 1   
    67   62   63 1   
    68   62   64 1   
    69   69   70 1   
    70   69   73 1   
    71   70   71 1   
    72   70   74 1   
    73   70   75 1   
    74   71   72 2   
    75   71   76 1   
    76   76   77 1   
    77   76   85 1   
    78   77   78 1   
    79   77   80 1   
    80   77   86 1   
    81   78   79 2   
    82   78   93 1   
    83   80   81 1   
    84   80   87 1   
    85   80   88 1   
    86   81   82 1   
    87   81   89 1   
    88   81   90 1   
    89   82   83 1   
    90   82   84 2   
    91   83   91 1   
    92   83   92 1   
    93   93   94 1   
    94   93  100 1   
    95   94   95 1   
    96   94   97 1   
    97   94  101 1   
    98   95   96 2   
    99   95  109 1   
   100   97   98 1   
   101   97   99 1   
   102   97  102 1   
   103   98  103 1   
   104   98  104 1   
   105   98  105 1   
   106   99  106 1   
   107   99  107 1   
   108   99  108 1   
   109  109  110 1   
   110  109  117 1   
   111  110  111 1   
   112  110  113 1   
   113  110  118 1   
   114  111  112 2   
   115  111  123 1   
   116  113  114 1   
   117  113  119 1   
   118  113  120 1   
   119  114  115 1   
   120  114  116 2   
   121  115  121 1   
   122  115  122 1   
   123  123  124 1   
   124  123  135 1   
   125  124  125 1   
   126  124  127 1   
   127  124  136 1   
   128  125  126 2   
   129  125  144 1   
   130  127  128 1   
   131  127  137 1   
   132  127  138 1   
   133  128  129 ar  
   134  128  130 ar  
   135  129  131 ar  
   136  129  139 1   
   137  130  132 ar  
   138  130  140 1   
   139  131  133 ar  
   140  131  141 1   
   141  132  133 ar  
   142  132  142 1   
   143  133  134 1   
   144  134  143 1   
   145  144  145 1   
   146  144  153 1   
   147  145  146 1   
   148  145  148 1   
   149  145  154 1   
   150  146  147 2   
   151  146  159 1   
   152  148  149 1   
   153  148  155 1   
   154  148  156 1   
   155  149  150 1   
   156  149  157 1   
   157  149  158 1   
   158  150  151 1   
   159  150  152 1   
   160  159  160 1   
   161  159  168 1   
   162  160  161 1   
   163  160  163 1   
   164  160  169 1   
   165  161  162 2   
   166  161  174 1   
   167  163  164 1   
   168  163  170 1   
   169  163  171 1   
   170  164  165 1   
   171  164  172 1   
   172  164  173 1   
   173  165  166 1   
   174  165  167 1   
   175  174  175 1   
   176  174  179 1   
   177  175  176 1   
   178  175  177 1   
   179  175  178 1   
   180  181  182 1   
   181  181  183 1   
@<TRIPOS>SUBSTRUCTURE
     1 MOL         1 TEMP              0 ****  ****    0 ROOT
