@<TRIPOS>MOLECULE
MOL
  189   185     1     0     0
SMALL
resp


@<TRIPOS>ATOM
      1 C1          0.4920    2.1220    5.3790 c3        1 MOL     -0.434209
      2 C2         -0.1880    2.1590    3.9400 c         1 MOL      0.707447
      3 O1          0.3290    2.7960    2.9720 o         1 MOL     -0.691858
      4 H1          0.6390    3.1410    5.7370 hc        1 MOL      0.120624
      5 H2         -0.1550    1.5840    6.0730 hc        1 MOL      0.120624
      6 H3          1.4550    1.6160    5.3130 hc        1 MOL      0.120624
      7 N1         -1.3820    1.5630    3.8510 n         1 MOL     -0.585344
      8 C3         -2.1520    1.3080    2.5610 c3        1 MOL      0.443633
      9 C4         -2.6390    2.5960    2.1240 c         1 MOL      0.205993
     10 O2         -3.6220    3.1100    2.6930 o         1 MOL     -0.519730
     11 C5         -3.2840    0.2720    2.7640 c3        1 MOL     -0.137501
     12 C6         -4.0810    0.0280    1.5200 c         1 MOL      0.789083
     13 O3         -3.4720    0.1550    0.4200 o         1 MOL     -0.715521
     14 O4         -5.2550   -0.3740    1.6540 o         1 MOL     -0.715521
     15 H4         -1.8860    1.2170    4.6500 hn        1 MOL      0.305590
     16 H5         -1.4770    0.8500    1.8420 h1        1 MOL     -0.074326
     17 H6         -3.9100    0.6830    3.5670 hc        1 MOL      0.005793
     18 H7         -2.7600   -0.5980    3.1610 hc        1 MOL      0.005793
     19 N2         -1.9520    3.2030    1.0540 n         1 MOL      0.025167
     20 C7         -2.0310    4.6210    0.7520 c3        1 MOL     -0.059488
     21 C8         -3.0130    5.0330   -0.4000 c         1 MOL      0.486342
     22 O5         -3.2850    6.2140   -0.6260 o         1 MOL     -0.535203
     23 C9         -0.5960    5.1110    0.3910 c3        1 MOL      0.088541
     24 C10        -0.1700    6.5650    0.6710 c3        1 MOL     -0.101675
     25 C11        -0.4870    7.1580    2.0460 c3        1 MOL     -0.002867
     26 C12         0.1310    6.1960    3.0930 c3        1 MOL     -0.010109
     27 N3         -0.1660    6.5500    4.4760 n4        1 MOL     -0.378163
     28 H8         -1.2360    2.6700    0.5730 hn        1 MOL      0.193636
     29 H9         -2.4480    5.1600    1.6090 h1        1 MOL      0.053502
     30 H10        -0.3400    4.8670   -0.6340 hc        1 MOL      0.025318
     31 H11         0.2340    4.5340    0.8140 hc        1 MOL      0.025318
     32 H12        -0.7190    7.0940   -0.0970 hc        1 MOL      0.021044
     33 H13         0.9070    6.6790    0.5180 hc        1 MOL      0.021044
     34 H14        -1.5700    7.2620    2.1330 hc        1 MOL      0.033767
     35 H15        -0.1280    8.1820    2.1380 hc        1 MOL      0.033767
     36 H16         1.2220    6.1960    2.9820 hx        1 MOL      0.116445
     37 H17        -0.2600    5.1930    2.9680 hx        1 MOL      0.116445
     38 H18        -1.1700    6.4600    4.5290 hn        1 MOL      0.321045
     39 H19         0.0610    5.8490    5.1700 hn        1 MOL      0.321045
     40 H20         0.1560    7.4470    4.8210 hn        1 MOL      0.321045
     41 N4         -3.7670    3.9960   -0.9280 n         1 MOL     -0.280443
     42 C13        -4.7840    3.8920   -1.9680 c3        1 MOL      0.002533
     43 C14        -5.9330    2.9350   -1.4690 c         1 MOL      0.563111
     44 O6         -6.8700    2.7220   -2.2200 o         1 MOL     -0.531030
     45 C15        -4.1420    3.4780   -3.3570 c3        1 MOL     -0.102329
     46 C16        -3.2210    2.2570   -3.3350 c         1 MOL      0.716296
     47 O7         -3.3730    1.4890   -2.3220 o         1 MOL     -0.696081
     48 O8         -2.4340    1.9720   -4.2720 o         1 MOL     -0.696081
     49 H21        -3.4190    3.1130   -0.5780 hn        1 MOL     -0.008339
     50 H22        -5.2480    4.8670   -2.1270 h1        1 MOL      0.086032
     51 H23        -3.5650    4.3130   -3.7700 hc        1 MOL      0.037353
     52 H24        -4.9420    3.3290   -4.0810 hc        1 MOL      0.037353
     53 N5         -5.8910    2.3930   -0.2140 n         1 MOL     -0.497658
     54 C17        -7.0800    1.6810    0.3540 c3        1 MOL     -0.098359
     55 C18        -7.4570    0.3770   -0.3620 c         1 MOL      0.505404
     56 O9         -8.4710   -0.2160   -0.0440 o         1 MOL     -0.594106
     57 H25        -5.0280    2.2600    0.2940 hn        1 MOL      0.319803
     58 H26        -7.9660    2.3090    0.2530 h1        1 MOL      0.114984
     59 H27        -7.0200    1.5100    1.4370 h1        1 MOL      0.114984
     60 N6         -6.6530   -0.1600   -1.2940 n         1 MOL     -0.262250
     61 C19        -6.8660   -1.5000   -1.9620 c3        1 MOL     -0.041013
     62 C20        -6.7190   -2.6430   -0.9990 c         1 MOL      0.432616
     63 O10        -7.0710   -3.7770   -1.3560 o         1 MOL     -0.568033
     64 C21        -5.9860   -1.8540   -3.1640 c3        1 MOL     -0.166667
     65 C22        -4.4630   -1.7650   -2.8990 c         1 MOL      0.684567
     66 O11        -3.8770   -2.1540   -1.8680 o         1 MOL     -0.677816
     67 O12        -3.7270   -1.3800   -3.8610 o         1 MOL     -0.677816
     68 H28        -5.9500    0.4970   -1.6090 hn        1 MOL      0.222501
     69 H29        -7.8860   -1.4790   -2.3340 h1        1 MOL      0.116271
     70 H30        -6.2270   -1.1330   -3.9380 hc        1 MOL      0.065051
     71 H31        -6.2930   -2.7980   -3.6120 hc        1 MOL      0.065051
     72 N7         -6.3680   -2.4220    0.2800 n         1 MOL     -0.113586
     73 C23        -6.3690   -3.4930    1.2920 c3        1 MOL     -0.230982
     74 C24        -5.0380   -4.3090    1.2380 c         1 MOL      0.506471
     75 O13        -5.1160   -5.4440    1.7480 o         1 MOL     -0.554643
     76 H32        -5.8590   -1.6110    0.5830 hn        1 MOL      0.270253
     77 H33        -7.2030   -4.1560    1.0810 h1        1 MOL      0.116559
     78 H34        -6.5580   -3.1110    2.2920 h1        1 MOL      0.116559
     79 N8         -3.9620   -3.8020    0.6180 n         1 MOL     -0.136758
     80 C25        -2.6270   -4.5000    0.5640 c3        1 MOL     -0.284520
     81 C26        -1.4520   -3.4760    0.8260 c         1 MOL      0.736479
     82 O14        -1.4640   -2.2990    0.3350 o         1 MOL     -0.612008
     83 C27        -2.3860   -5.4340   -0.6090 c3        1 MOL      0.416926
     84 C28        -3.2950   -6.6440   -0.7870 c3        1 MOL     -0.438455
     85 O15        -2.4040   -4.8700   -1.8550 oh        1 MOL     -0.600458
     86 H35        -4.0430   -2.9420    0.0880 hn        1 MOL      0.051695
     87 H36        -2.6000   -5.1540    1.4370 h1        1 MOL      0.088707
     88 H37        -1.4220   -5.9280   -0.4630 h1        1 MOL      0.016954
     89 H38        -3.2650   -4.4680   -1.9480 ho        1 MOL      0.422938
     90 H39        -3.3900   -7.3830   -0.0020 hc        1 MOL      0.116826
     91 H40        -4.3070   -6.2700   -0.9220 hc        1 MOL      0.116826
     92 H41        -3.0170   -7.0810   -1.7490 hc        1 MOL      0.116826
     93 N9         -0.4570   -3.9000    1.6350 n         1 MOL     -0.726346
     94 C29         0.7300   -3.0520    1.9730 c3        1 MOL     -0.014870
     95 C30         1.9770   -3.5860    1.1310 c         1 MOL      0.611245
     96 O16         2.4640   -4.6340    1.4180 o         1 MOL     -0.547173
     97 C31         1.1020   -3.0150    3.4510 c3        1 MOL      0.200993
     98 C32        -0.1090   -2.8870    4.4120 c3        1 MOL      0.395716
     99 C33         2.0560   -1.8140    3.6410 c3        1 MOL     -0.506869
    100 C34         0.2480   -2.9220    5.9100 c3        1 MOL     -0.360007
    101 H42        -0.6160   -4.7990    2.0720 hn        1 MOL      0.366098
    102 H43         0.4980   -2.0380    1.6510 h1        1 MOL      0.130539
    103 H44         1.5930   -3.9220    3.7970 hc        1 MOL     -0.022681
    104 H45        -0.8660   -3.6400    4.1830 hc        1 MOL     -0.086115
    105 H46        -0.6020   -1.9210    4.2850 hc        1 MOL     -0.086115
    106 H47         2.2900   -1.7020    4.6920 hc        1 MOL      0.097297
    107 H48         2.9740   -1.8420    3.0580 hc        1 MOL      0.097297
    108 H49         1.4900   -0.9150    3.3850 hc        1 MOL      0.097297
    109 H50         0.4820   -3.9720    6.0730 hc        1 MOL      0.075813
    110 H51         0.9070   -2.0990    6.2070 hc        1 MOL      0.075813
    111 H52        -0.6510   -2.7050    6.4890 hc        1 MOL      0.075813
    112 N10         2.4400   -2.7320    0.1880 n         1 MOL     -0.254548
    113 C35         3.6200   -2.8800   -0.6360 c3        1 MOL     -0.062059
    114 C36         4.9690   -2.5980    0.1060 c         1 MOL      0.281457
    115 O17         4.9850   -1.7210    1.0260 o         1 MOL     -0.294550
    116 C37         3.6370   -2.1150   -1.8510 c3        1 MOL      0.107025
    117 C38         2.6220   -2.6470   -2.8790 c3        1 MOL     -0.279324
    118 O18         3.3920   -0.7320   -1.5870 oh        1 MOL     -0.543321
    119 H53         1.9190   -1.8800    0.0970 hn        1 MOL      0.225657
    120 H54         3.7390   -3.9250   -0.9470 h1        1 MOL      0.079211
    121 H55         4.6390   -2.2010   -2.2800 h1        1 MOL      0.050445
    122 H56         2.4390   -0.6900   -1.5250 ho        1 MOL      0.416142
    123 H57         1.6280   -2.8650   -2.4900 hc        1 MOL      0.087301
    124 H58         2.5860   -1.9550   -3.7250 hc        1 MOL      0.087301
    125 H59         2.9270   -3.5700   -3.3580 hc        1 MOL      0.087301
    126 N11         6.2050   -3.0370   -0.3330 n         1 MOL     -0.187263
    127 C39         7.4910   -2.5300    0.1740 c3        1 MOL     -0.303717
    128 C40         7.6390   -1.0060    0.0800 c         1 MOL      0.437816
    129 O19         8.2760   -0.3950    0.9590 o         1 MOL     -0.469059
    130 C41         8.6980   -3.1590   -0.4990 c3        1 MOL      0.310713
    131 C42         8.8440   -4.6770   -0.0880 c3        1 MOL     -0.336796
    132 O20         8.5240   -3.1660   -1.8690 oh        1 MOL     -0.662659
    133 H60         6.2420   -3.7680   -1.0220 hn        1 MOL      0.253128
    134 H61         7.5450   -2.7720    1.2370 h1        1 MOL      0.162561
    135 H62         9.6820   -2.7750   -0.2280 h1        1 MOL      0.064967
    136 H63         9.0810   -3.8820   -2.1920 ho        1 MOL      0.431467
    137 H64         8.9290   -4.7970    0.9940 hc        1 MOL      0.091302
    138 H65         7.9500   -5.1940   -0.4320 hc        1 MOL      0.091302
    139 H66         9.7340   -5.0790   -0.5800 hc        1 MOL      0.091302
    140 N12         7.1830   -0.5200   -1.0660 n         1 MOL     -0.201799
    141 C43         7.0050    0.9080   -1.3000 c3        1 MOL     -0.196874
    142 C44         6.1750    1.5630   -0.2020 c         1 MOL      0.284837
    143 O21         6.6300    2.5530    0.4180 o         1 MOL     -0.475666
    144 C45         6.5380    1.0040   -2.7450 c3        1 MOL     -0.028389
    145 C46         6.8940    2.3470   -3.4640 c3        1 MOL      0.060852
    146 C47         6.8250    2.5190   -4.9580 c3        1 MOL     -0.055753
    147 C48         6.0680    3.6620   -5.5810 c3        1 MOL     -0.137409
    148 N13         6.8630    4.8630   -5.5400 n4        1 MOL     -0.119176
    149 H67         6.9000   -1.1660   -1.7920 hn        1 MOL      0.247430
    150 H68         7.9730    1.4170   -1.2500 h1        1 MOL      0.127523
    151 H69         5.4660    0.7980   -2.7280 hc        1 MOL      0.048277
    152 H70         6.8880    0.1690   -3.3470 hc        1 MOL      0.048277
    153 H71         7.8830    2.6560   -3.1430 hc        1 MOL      0.007978
    154 H72         6.2050    3.0690   -3.0100 hc        1 MOL      0.007978
    155 H73         6.4250    1.5940   -5.3670 hc        1 MOL      0.044377
    156 H74         7.8340    2.4260   -5.3420 hc        1 MOL      0.044377
    157 H75         5.1620    3.8060   -5.0030 hx        1 MOL      0.138098
    158 H76         5.8670    3.3880   -6.6170 hx        1 MOL      0.138098
    159 H77         6.4680    5.6820   -5.9840 hn        1 MOL      0.256677
    160 H78         7.3460    5.0010   -4.6590 hn        1 MOL      0.256677
    161 H79         7.7000    4.7310   -6.0950 hn        1 MOL      0.256677
    162 N14         4.9620    1.0690    0.0850 n         1 MOL      0.011882
    163 C49         4.0940    1.5950    1.1760 c3        1 MOL     -0.046266
    164 C50         4.6940    1.5250    2.6040 c         1 MOL      0.318210
    165 O22         4.6380    2.4750    3.3310 o         1 MOL     -0.537787
    166 C51         2.7420    0.9250    1.2090 c3        1 MOL      0.119281
    167 C52         1.9170    1.5290    0.0170 c3        1 MOL     -0.137670
    168 C53         0.7110    0.6980   -0.4250 c         1 MOL      0.749323
    169 O23        -0.3820    1.2860   -0.5710 o         1 MOL     -0.734675
    170 O24         0.8250   -0.4260   -0.8890 o         1 MOL     -0.734675
    171 H80         4.4770    0.4250   -0.5370 hn        1 MOL      0.141972
    172 H81         3.8510    2.6140    0.9060 h1        1 MOL      0.054365
    173 H82         2.1330    0.8860    2.1200 hc        1 MOL      0.013626
    174 H83         2.9100   -0.1300    0.9860 hc        1 MOL      0.013626
    175 H84         2.5590    1.6810   -0.8540 hc        1 MOL      0.002533
    176 H85         1.4920    2.4650    0.3940 hc        1 MOL      0.002533
    177 N15         5.4920    0.5100    2.8910 n         1 MOL      0.031208
    178 C54         6.2480    0.2740    4.2090 c3        1 MOL     -0.293288
    179 H86         6.3170    1.2110    4.7610 h1        1 MOL      0.114351
    180 H87         5.7130   -0.4620    4.8090 h1        1 MOL      0.114351
    181 H88         7.2510   -0.0940    3.9920 h1        1 MOL      0.114351
    182 H89         5.5780   -0.1240    2.1140 hn        1 MOL      0.055184
    183 Ca1        -2.0070   -0.4340   -1.6340 Ca        1 MOL      1.765770
    184 O25        -0.9530   -2.5760   -3.1460 oh        1 MOL     -0.831852
    185 H90        -1.1510   -3.4610   -2.8540 ho        1 MOL      0.389983
    186 H91        -0.5870   -2.6910   -4.0270 ho        1 MOL      0.389983
    187 O26        -0.5890    0.3860   -3.7160 oh        1 MOL     -0.831852
    188 H92        -1.3420    0.8820   -4.0400 ho        1 MOL      0.389983
    189 H93        -0.1640    0.0700   -4.5160 ho        1 MOL      0.389983
@<TRIPOS>BOND
     1    1    2 1   
     2    1    4 1   
     3    1    5 1   
     4    1    6 1   
     5    2    3 2   
     6    2    7 1   
     7    7    8 1   
     8    7   15 1   
     9    8    9 1   
    10    8   11 1   
    11    8   16 1   
    12    9   10 2   
    13    9   19 1   
    14   11   12 1   
    15   11   17 1   
    16   11   18 1   
    17   12   13 1   
    18   12   14 1   
    19   19   20 1   
    20   19   28 1   
    21   20   21 1   
    22   20   23 1   
    23   20   29 1   
    24   21   22 2   
    25   21   41 1   
    26   23   24 1   
    27   23   30 1   
    28   23   31 1   
    29   24   25 1   
    30   24   32 1   
    31   24   33 1   
    32   25   26 1   
    33   25   34 1   
    34   25   35 1   
    35   26   27 1   
    36   26   36 1   
    37   26   37 1   
    38   27   38 1   
    39   27   39 1   
    40   27   40 1   
    41   41   42 1   
    42   41   49 1   
    43   42   43 1   
    44   42   45 1   
    45   42   50 1   
    46   43   44 2   
    47   43   53 1   
    48   45   46 1   
    49   45   51 1   
    50   45   52 1   
    51   46   47 1   
    52   46   48 1   
    53   53   54 1   
    54   53   57 1   
    55   54   55 1   
    56   54   58 1   
    57   54   59 1   
    58   55   56 2   
    59   55   60 1   
    60   60   61 1   
    61   60   68 1   
    62   61   62 1   
    63   61   64 1   
    64   61   69 1   
    65   62   63 2   
    66   62   72 1   
    67   64   65 1   
    68   64   70 1   
    69   64   71 1   
    70   65   66 1   
    71   65   67 1   
    72   72   73 1   
    73   72   76 1   
    74   73   74 1   
    75   73   77 1   
    76   73   78 1   
    77   74   75 2   
    78   74   79 1   
    79   79   80 1   
    80   79   86 1   
    81   80   81 1   
    82   80   83 1   
    83   80   87 1   
    84   81   82 2   
    85   81   93 1   
    86   83   84 1   
    87   83   85 1   
    88   83   88 1   
    89   84   90 1   
    90   84   91 1   
    91   84   92 1   
    92   85   89 1   
    93   93   94 1   
    94   93  101 1   
    95   94   95 1   
    96   94   97 1   
    97   94  102 1   
    98   95   96 2   
    99   95  112 1   
   100   97   98 1   
   101   97   99 1   
   102   97  103 1   
   103   98  100 1   
   104   98  104 1   
   105   98  105 1   
   106   99  106 1   
   107   99  107 1   
   108   99  108 1   
   109  100  109 1   
   110  100  110 1   
   111  100  111 1   
   112  112  113 1   
   113  112  119 1   
   114  113  114 1   
   115  113  116 1   
   116  113  120 1   
   117  114  115 2   
   118  114  126 1   
   119  116  117 1   
   120  116  118 1   
   121  116  121 1   
   122  117  123 1   
   123  117  124 1   
   124  117  125 1   
   125  118  122 1   
   126  126  127 1   
   127  126  133 1   
   128  127  128 1   
   129  127  130 1   
   130  127  134 1   
   131  128  129 2   
   132  128  140 1   
   133  130  131 1   
   134  130  132 1   
   135  130  135 1   
   136  131  137 1   
   137  131  138 1   
   138  131  139 1   
   139  132  136 1   
   140  140  141 1   
   141  140  149 1   
   142  141  142 1   
   143  141  144 1   
   144  141  150 1   
   145  142  143 2   
   146  142  162 1   
   147  144  145 1   
   148  144  151 1   
   149  144  152 1   
   150  145  146 1   
   151  145  153 1   
   152  145  154 1   
   153  146  147 1   
   154  146  155 1   
   155  146  156 1   
   156  147  148 1   
   157  147  157 1   
   158  147  158 1   
   159  148  159 1   
   160  148  160 1   
   161  148  161 1   
   162  162  163 1   
   163  162  171 1   
   164  163  164 1   
   165  163  166 1   
   166  163  172 1   
   167  164  165 2   
   168  164  177 1   
   169  166  167 1   
   170  166  173 1   
   171  166  174 1   
   172  167  168 1   
   173  167  175 1   
   174  167  176 1   
   175  168  169 1   
   176  168  170 1   
   177  177  178 1   
   178  177  182 1   
   179  178  179 1   
   180  178  180 1   
   181  178  181 1   
   182  184  185 1   
   183  184  186 1   
   184  187  188 1   
   185  187  189 1   
@<TRIPOS>SUBSTRUCTURE
     1 MOL         1 TEMP              0 ****  ****    0 ROOT
