@<TRIPOS>MOLECULE
MOL
  186   183     1     0     0
SMALL
resp


@<TRIPOS>ATOM
      1 C1          0.5530   -1.4640    6.4650 c3        1 MOL     -0.314167
      2 C2          0.8260   -1.4270    4.9360 c         1 MOL      0.740839
      3 O1         -0.1120   -1.5910    4.2120 o         1 MOL     -0.559190
      4 H1          1.2300   -2.1750    6.9380 hc        1 MOL      0.066932
      5 H2          0.7150   -0.4720    6.8870 hc        1 MOL      0.066932
      6 H3         -0.4780   -1.7710    6.6430 hc        1 MOL      0.066932
      7 N1          2.0480   -1.1090    4.5010 n         1 MOL     -0.602981
      8 C3          2.5970   -1.3150    3.1400 c3        1 MOL      0.114810
      9 C4          2.9630   -2.7980    2.8140 c         1 MOL      0.518375
     10 O2          3.6770   -3.4580    3.5660 o         1 MOL     -0.611132
     11 C5          3.8000   -0.3110    2.9110 c3        1 MOL     -0.112952
     12 C6          4.4850   -0.5560    1.5320 c         1 MOL      0.725352
     13 O3          5.6550   -0.1240    1.4470 o         1 MOL     -0.649051
     14 O4          3.8310   -1.1420    0.6590 o         1 MOL     -0.649051
     15 H4          2.6910   -0.7750    5.2040 hn        1 MOL      0.295997
     16 H5          1.7730   -1.0030    2.5050 h1        1 MOL      0.040420
     17 H6          4.5950   -0.4260    3.6560 hc        1 MOL      0.013586
     18 H7          3.4450    0.7210    2.9670 hc        1 MOL      0.013586
     19 N2          2.3470   -3.3950    1.8660 n         1 MOL     -0.189980
     20 C7          2.4290   -4.7890    1.3720 c3        1 MOL     -0.107913
     21 C8          3.6100   -5.0410    0.3750 c         1 MOL      0.600521
     22 O5          4.1770   -6.1470    0.3300 o         1 MOL     -0.617946
     23 C9          1.0560   -5.2360    0.8200 c3        1 MOL      0.199748
     24 C10        -0.1400   -4.9330    1.7560 c3        1 MOL      0.177803
     25 C11         0.9940   -6.7530    0.5120 c3        1 MOL     -0.462277
     26 C12        -0.2040   -5.8180    2.9800 c3        1 MOL     -0.325733
     27 H8          1.7210   -2.8520    1.2940 hn        1 MOL      0.179524
     28 H9          2.6260   -5.4000    2.2490 h1        1 MOL      0.075893
     29 H10         0.7450   -4.6640   -0.0600 hc        1 MOL      0.014534
     30 H11        -1.1140   -5.0330    1.2820 hc        1 MOL     -0.013307
     31 H12        -0.0760   -3.8840    2.0460 hc        1 MOL     -0.013307
     32 H13        -0.0200   -7.0260    0.2500 hc        1 MOL      0.111102
     33 H14         1.6510   -6.9700   -0.3330 hc        1 MOL      0.111102
     34 H15         1.3820   -7.2630    1.3930 hc        1 MOL      0.111102
     35 H16        -1.1050   -5.4740    3.5070 hc        1 MOL      0.060103
     36 H17        -0.2240   -6.8580    2.6810 hc        1 MOL      0.060103
     37 H18         0.6940   -5.7570    3.5950 hc        1 MOL      0.060103
     38 N3          4.0650   -4.0830   -0.3980 n         1 MOL     -0.417189
     39 C13         4.9890   -4.3180   -1.4820 c3        1 MOL      0.057160
     40 C14         6.2530   -3.4470   -1.3670 c         1 MOL      0.483949
     41 O6          7.1880   -3.7600   -2.0860 o         1 MOL     -0.563372
     42 C15         4.2430   -4.1020   -2.7920 c3        1 MOL     -0.091287
     43 C16         3.5870   -2.7560   -3.0470 c         1 MOL      0.762953
     44 O7          3.1270   -2.5790   -4.1650 o         1 MOL     -0.709568
     45 O8          3.5010   -1.8900   -2.1430 o         1 MOL     -0.709568
     46 H19         3.7870   -3.1620   -0.1070 hn        1 MOL      0.150905
     47 H20         5.4010   -5.3240   -1.5250 h1        1 MOL      0.088432
     48 H21         3.4880   -4.9000   -2.7540 hc        1 MOL      0.012679
     49 H22         4.9030   -4.3610   -3.6180 hc        1 MOL      0.012679
     50 N4          6.4430   -2.5500   -0.4060 n         1 MOL     -0.117105
     51 C17         7.6790   -1.9470   -0.0490 c3        1 MOL     -0.407051
     52 C18         8.0160   -0.7410   -1.0520 c         1 MOL      0.680035
     53 O9          8.9790   -0.7260   -1.8450 o         1 MOL     -0.604783
     54 H23         5.6050   -2.1660    0.0080 hn        1 MOL      0.209546
     55 H24         8.4830   -2.6810    0.0050 h1        1 MOL      0.131182
     56 H25         7.6910   -1.4440    0.9140 h1        1 MOL      0.131182
     57 N5          7.2380    0.2930   -0.8400 n         1 MOL     -0.404681
     58 C19         7.2870    1.5760   -1.4970 c3        1 MOL      0.043584
     59 C20         7.0160    2.8300   -0.5770 c         1 MOL      0.507265
     60 O10         7.3810    3.9670   -0.8880 o         1 MOL     -0.555268
     61 C21         6.2790    1.5430   -2.6520 c3        1 MOL     -0.156817
     62 C22         4.8400    1.4020   -2.1790 c         1 MOL      0.803893
     63 O11         3.9780    0.9280   -2.9630 o         1 MOL     -0.742173
     64 O12         4.4730    1.7630   -1.0210 o         1 MOL     -0.742173
     65 H26         6.4670    0.1560   -0.2050 hn        1 MOL      0.121279
     66 H27         8.2840    1.5800   -1.9280 h1        1 MOL      0.068003
     67 H28         6.5230    0.7780   -3.3860 hc        1 MOL      0.049399
     68 H29         6.3640    2.5440   -3.0600 hc        1 MOL      0.049399
     69 N6          6.6390    2.5230    0.6890 n         1 MOL     -0.357348
     70 C23         6.4790    3.5340    1.7180 c3        1 MOL      0.032045
     71 C24         5.1870    4.2870    1.6140 c         1 MOL      0.490290
     72 O13         5.1250    5.4010    2.1490 o         1 MOL     -0.601154
     73 H30         6.3480    1.5880    0.9160 hn        1 MOL      0.274263
     74 H31         7.3500    4.1930    1.7660 h1        1 MOL      0.042285
     75 H32         6.4530    3.0480    2.6950 h1        1 MOL      0.042285
     76 N7          4.1510    3.7410    0.9440 n         1 MOL     -0.300898
     77 C25         2.8070    4.2750    0.8710 c3        1 MOL     -0.115939
     78 C26         1.6630    3.2300    1.0510 c         1 MOL      0.662383
     79 O14         1.6080    2.1500    0.4650 o         1 MOL     -0.740766
     80 C27         2.6200    4.9960   -0.4730 c3        1 MOL     -0.398539
     81 C28         3.6500    6.1670   -0.5260 c3        1 MOL     -0.123425
     82 C29         3.5660    6.9640   -1.7740 c         1 MOL      0.639977
     83 N8          4.4060    7.9680   -1.8930 n         1 MOL     -0.773424
     84 O15         2.6810    6.7820   -2.6150 o         1 MOL     -0.577876
     85 H33         4.3690    2.8860    0.4460 hn        1 MOL      0.249024
     86 H34         2.6490    5.0020    1.6670 h1        1 MOL      0.097247
     87 H35         1.6030    5.3850   -0.5480 hc        1 MOL      0.185091
     88 H36         2.8550    4.3570   -1.3240 hc        1 MOL      0.185091
     89 H37         4.7000    5.9120   -0.5800 hc        1 MOL      0.095768
     90 H38         3.5710    6.7360    0.3960 hc        1 MOL      0.095768
     91 H39         4.9100    8.3090   -1.0840 hn        1 MOL      0.340848
     92 H40         4.1870    8.5770   -2.6690 hn        1 MOL      0.340848
     93 N9          0.7250    3.5530    1.8780 n         1 MOL     -0.371033
     94 C30        -0.5240    2.7290    1.9570 c3        1 MOL      0.065574
     95 C31        -1.4980    3.3580    0.9970 c         1 MOL      0.352480
     96 O16        -1.9840    4.4350    1.2740 o         1 MOL     -0.592652
     97 C32        -1.1690    2.6220    3.4090 c3        1 MOL      0.307702
     98 C33        -2.2390    1.4820    3.3520 c3        1 MOL     -0.275486
     99 C34        -0.1680    2.3180    4.5170 c3        1 MOL     -0.275486
    100 H41         0.7920    4.3690    2.4680 hn        1 MOL      0.241801
    101 H42        -0.4360    1.6820    1.6550 h1        1 MOL      0.139585
    102 H43        -1.6610    3.5440    3.7230 hc        1 MOL     -0.048895
    103 H44        -2.5940    1.4820    4.3810 hc        1 MOL      0.050764
    104 H45        -3.0980    1.8420    2.7930 hc        1 MOL      0.050764
    105 H46        -1.7330    0.5580    3.0480 hc        1 MOL      0.050764
    106 H47         0.0540    1.2470    4.5320 hc        1 MOL      0.050764
    107 H48         0.7870    2.8060    4.3330 hc        1 MOL      0.050764
    108 H49        -0.5480    2.5900    5.5000 hc        1 MOL      0.050764
    109 N10        -1.9530    2.6030    0.0290 n         1 MOL     -0.039995
    110 C35        -3.1740    2.9410   -0.7840 c3        1 MOL      0.056177
    111 C36        -4.4930    2.1270   -0.4040 c         1 MOL      0.226868
    112 O17        -4.2710    1.1720    0.3670 o         1 MOL     -0.169755
    113 C37        -2.7450    2.6940   -2.2620 c3        1 MOL     -0.327347
    114 C38        -3.1200    1.2490   -2.7110 c         1 MOL      0.662693
    115 N11        -2.2970    0.3060   -2.4630 n         1 MOL     -0.724476
    116 O18        -4.1560    1.0500   -3.3010 o         1 MOL     -0.582293
    117 H50        -1.3930    1.7820   -0.1550 hn        1 MOL      0.061439
    118 H51        -3.3620    4.0040   -0.6590 h1        1 MOL      0.081414
    119 H52        -1.6730    2.8370   -2.3500 hc        1 MOL      0.092121
    120 H53        -3.2160    3.4780   -2.8480 hc        1 MOL      0.092121
    121 H54        -1.4890    0.3550   -1.8730 hn        1 MOL      0.374244
    122 H55        -2.2850   -0.5390   -3.0200 hn        1 MOL      0.374244
    123 N12        -5.6050    2.4820   -0.9790 n         1 MOL     -0.391461
    124 C39        -6.8410    2.0180   -0.4760 c3        1 MOL      0.062142
    125 C40        -6.8570    0.4770   -0.5330 c         1 MOL      0.704950
    126 O19        -7.3720   -0.0940    0.4300 o         1 MOL     -0.572310
    127 C41        -8.1140    2.5990   -1.1930 c3        1 MOL     -0.210524
    128 C42        -9.3760    2.0530   -0.5850 ca        1 MOL      0.198893
    129 C43        -9.8670    2.4570    0.6540 ca        1 MOL     -0.319959
    130 C44       -10.1420    1.1860   -1.3810 ca        1 MOL     -0.319959
    131 C45       -11.0530    1.8950    1.1430 ca        1 MOL     -0.063302
    132 C46       -11.3470    0.7080   -0.9030 ca        1 MOL     -0.063302
    133 C47       -11.8390    1.0450    0.3370 ca        1 MOL      0.208861
    134 O20       -13.0500    0.5960    0.8370 oh        1 MOL     -0.557772
    135 H56        -5.7320    3.3380   -1.5080 hn        1 MOL      0.305955
    136 H57        -6.8890    2.2800    0.5790 h1        1 MOL      0.071109
    137 H58        -7.9690    2.3640   -2.2490 hc        1 MOL      0.076979
    138 H59        -8.1890    3.6830   -1.2120 hc        1 MOL      0.076979
    139 H60        -9.2780    3.1260    1.2600 ha        1 MOL      0.162022
    140 H61        -9.7160    0.7630   -2.2790 ha        1 MOL      0.162022
    141 H62       -11.4310    2.1430    2.1200 ha        1 MOL      0.093131
    142 H63       -12.0300    0.1050   -1.4880 ha        1 MOL      0.093131
    143 H64       -13.4390   -0.2160    0.5300 ho        1 MOL      0.406015
    144 N13        -6.2110   -0.1810   -1.5250 n         1 MOL     -0.622414
    145 C48        -6.0630   -1.5980   -1.6450 c3        1 MOL      0.286324
    146 C49        -5.3040   -2.2410   -0.4250 c         1 MOL      0.214592
    147 O21        -5.6370   -3.3910   -0.1400 o         1 MOL     -0.522114
    148 C50        -5.2670   -1.9780   -2.9590 c3        1 MOL     -0.123651
    149 C51        -5.3440   -3.4930   -3.3760 c3        1 MOL     -0.476711
    150 C52        -4.6190   -3.6470   -4.7290 c         1 MOL      0.826762
    151 O22        -5.2080   -3.4410   -5.8010 o         1 MOL     -0.763858
    152 O23        -3.4380   -4.0760   -4.8120 o         1 MOL     -0.763858
    153 H65        -5.7530    0.3450   -2.2550 hn        1 MOL      0.296093
    154 H66        -7.0450   -2.0580   -1.5990 h1        1 MOL      0.037756
    155 H67        -4.2090   -1.7430   -2.8540 hc        1 MOL      0.081590
    156 H68        -5.6580   -1.3600   -3.7610 hc        1 MOL      0.081590
    157 H69        -6.3780   -3.8230   -3.4780 hc        1 MOL      0.103884
    158 H70        -4.9210   -4.1790   -2.6400 hc        1 MOL      0.103884
    159 N14        -4.3530   -1.5840    0.2100 n         1 MOL      0.127642
    160 C53        -3.7010   -2.0010    1.4440 c3        1 MOL     -0.149183
    161 C54        -4.3720   -1.5060    2.7180 c         1 MOL      0.486986
    162 O24        -4.2800   -2.1960    3.7210 o         1 MOL     -0.566606
    163 C55        -2.2270   -1.6000    1.2070 c3        1 MOL      0.097145
    164 C56        -1.4020   -2.0490   -0.0480 c3        1 MOL     -0.010056
    165 C57        -0.1720   -1.2670   -0.2060 c         1 MOL      0.670060
    166 O25         0.9320   -1.7730   -0.0520 o         1 MOL     -0.724236
    167 O26        -0.1960   -0.1020   -0.6070 o         1 MOL     -0.724236
    168 H71        -4.1210   -0.6620   -0.1450 hn        1 MOL     -0.072675
    169 H72        -3.6340   -3.0880    1.4750 h1        1 MOL      0.102192
    170 H73        -1.6460   -1.8370    2.0950 hc        1 MOL      0.006005
    171 H74        -2.1090   -0.5120    1.1960 hc        1 MOL      0.006005
    172 H75        -2.0490   -1.9620   -0.9150 hc        1 MOL     -0.002817
    173 H76        -1.0940   -3.0790    0.1120 hc        1 MOL     -0.002817
    174 N15        -5.0450   -0.3810    2.7260 n         1 MOL     -0.046281
    175 C58        -5.9150    0.1220    3.8010 c3        1 MOL     -0.200399
    176 H77        -5.5140   -0.1870    4.7660 h1        1 MOL      0.075169
    177 H78        -5.9560    1.2100    3.7570 h1        1 MOL      0.075169
    178 H79        -6.9180   -0.2850    3.6780 h1        1 MOL      0.075169
    179 H80        -5.0310    0.2030    1.9090 hn        1 MOL      0.044773
    180 Ca1         2.2490    0.0820   -1.1230 Ca        1 MOL      1.783789
    181 O27         0.7670   -1.1070   -3.3270 oh        1 MOL     -0.823583
    182 H81         1.4840   -1.4090   -3.8800 ho        1 MOL      0.391133
    183 H82        -0.0250   -1.3770   -3.7820 ho        1 MOL      0.391133
    184 O28         0.8640    2.1060   -2.4770 oh        1 MOL     -0.823583
    185 H83         0.6850    3.0440   -2.4310 ho        1 MOL      0.391133
    186 H84         0.0380    1.7200   -2.7900 ho        1 MOL      0.391133
@<TRIPOS>BOND
     1    1    2 1   
     2    1    4 1   
     3    1    5 1   
     4    1    6 1   
     5    2    3 2   
     6    2    7 1   
     7    7    8 1   
     8    7   15 1   
     9    8    9 1   
    10    8   11 1   
    11    8   16 1   
    12    9   10 2   
    13    9   19 1   
    14   11   12 1   
    15   11   17 1   
    16   11   18 1   
    17   12   13 1   
    18   12   14 1   
    19   19   20 1   
    20   19   27 1   
    21   20   21 1   
    22   20   23 1   
    23   20   28 1   
    24   21   22 2   
    25   21   38 1   
    26   23   24 1   
    27   23   25 1   
    28   23   29 1   
    29   24   26 1   
    30   24   30 1   
    31   24   31 1   
    32   25   32 1   
    33   25   33 1   
    34   25   34 1   
    35   26   35 1   
    36   26   36 1   
    37   26   37 1   
    38   38   39 1   
    39   38   46 1   
    40   39   40 1   
    41   39   42 1   
    42   39   47 1   
    43   40   41 2   
    44   40   50 1   
    45   42   43 1   
    46   42   48 1   
    47   42   49 1   
    48   43   44 1   
    49   43   45 1   
    50   50   51 1   
    51   50   54 1   
    52   51   52 1   
    53   51   55 1   
    54   51   56 1   
    55   52   53 2   
    56   52   57 1   
    57   57   58 1   
    58   57   65 1   
    59   58   59 1   
    60   58   61 1   
    61   58   66 1   
    62   59   60 2   
    63   59   69 1   
    64   61   62 1   
    65   61   67 1   
    66   61   68 1   
    67   62   63 1   
    68   62   64 1   
    69   69   70 1   
    70   69   73 1   
    71   70   71 1   
    72   70   74 1   
    73   70   75 1   
    74   71   72 2   
    75   71   76 1   
    76   76   77 1   
    77   76   85 1   
    78   77   78 1   
    79   77   80 1   
    80   77   86 1   
    81   78   79 2   
    82   78   93 1   
    83   80   81 1   
    84   80   87 1   
    85   80   88 1   
    86   81   82 1   
    87   81   89 1   
    88   81   90 1   
    89   82   83 1   
    90   82   84 2   
    91   83   91 1   
    92   83   92 1   
    93   93   94 1   
    94   93  100 1   
    95   94   95 1   
    96   94   97 1   
    97   94  101 1   
    98   95   96 2   
    99   95  109 1   
   100   97   98 1   
   101   97   99 1   
   102   97  102 1   
   103   98  103 1   
   104   98  104 1   
   105   98  105 1   
   106   99  106 1   
   107   99  107 1   
   108   99  108 1   
   109  109  110 1   
   110  109  117 1   
   111  110  111 1   
   112  110  113 1   
   113  110  118 1   
   114  111  112 2   
   115  111  123 1   
   116  113  114 1   
   117  113  119 1   
   118  113  120 1   
   119  114  115 1   
   120  114  116 2   
   121  115  121 1   
   122  115  122 1   
   123  123  124 1   
   124  123  135 1   
   125  124  125 1   
   126  124  127 1   
   127  124  136 1   
   128  125  126 2   
   129  125  144 1   
   130  127  128 1   
   131  127  137 1   
   132  127  138 1   
   133  128  129 ar  
   134  128  130 ar  
   135  129  131 ar  
   136  129  139 1   
   137  130  132 ar  
   138  130  140 1   
   139  131  133 ar  
   140  131  141 1   
   141  132  133 ar  
   142  132  142 1   
   143  133  134 1   
   144  134  143 1   
   145  144  145 1   
   146  144  153 1   
   147  145  146 1   
   148  145  148 1   
   149  145  154 1   
   150  146  147 2   
   151  146  159 1   
   152  148  149 1   
   153  148  155 1   
   154  148  156 1   
   155  149  150 1   
   156  149  157 1   
   157  149  158 1   
   158  150  151 1   
   159  150  152 1   
   160  159  160 1   
   161  159  168 1   
   162  160  161 1   
   163  160  163 1   
   164  160  169 1   
   165  161  162 2   
   166  161  174 1   
   167  163  164 1   
   168  163  170 1   
   169  163  171 1   
   170  164  165 1   
   171  164  172 1   
   172  164  173 1   
   173  165  166 1   
   174  165  167 1   
   175  174  175 1   
   176  174  179 1   
   177  175  176 1   
   178  175  177 1   
   179  175  178 1   
   180  181  182 1   
   181  181  183 1   
   182  184  185 1   
   183  184  186 1   
@<TRIPOS>SUBSTRUCTURE
     1 MOL         1 TEMP              0 ****  ****    0 ROOT
