@<TRIPOS>MOLECULE
MOL
  176   174     1     0     0
SMALL
resp


@<TRIPOS>ATOM
      1 C1         -0.2510   -4.8630    6.1880 c3        1 MOL     -0.330911
      2 C2         -0.2960   -4.2650    4.7950 c         1 MOL      0.761905
      3 O1         -1.3670   -4.0130    4.3200 o         1 MOL     -0.581747
      4 H1          0.3000   -4.1970    6.8510 hc        1 MOL      0.075441
      5 H2         -1.2670   -4.9890    6.5630 hc        1 MOL      0.075441
      6 H3          0.2460   -5.8320    6.1520 hc        1 MOL      0.075441
      7 N1          0.8870   -3.9900    4.2430 n         1 MOL     -0.624535
      8 C3          1.0380   -3.4940    2.8600 c3        1 MOL      0.184517
      9 C4          1.5700   -4.6720    1.9800 c         1 MOL      0.541153
     10 O2          2.2490   -5.5930    2.5030 o         1 MOL     -0.558611
     11 C5          1.7680   -2.1690    2.9310 c3        1 MOL     -0.249411
     12 C6          1.8020   -1.4550    1.5470 c         1 MOL      0.871784
     13 O3          2.3710   -0.3340    1.4300 o         1 MOL     -0.842642
     14 O4          1.1030   -1.7500    0.5300 o         1 MOL     -0.842642
     15 H4          1.7260   -4.1290    4.7860 hn        1 MOL      0.319727
     16 H5          0.0540   -3.1820    2.5140 h1        1 MOL      0.025882
     17 H6          2.7980   -2.3130    3.2630 hc        1 MOL      0.062637
     18 H7          1.2730   -1.5090    3.6530 hc        1 MOL      0.062637
     19 N2          1.2770   -4.6230    0.6780 n         1 MOL     -0.415073
     20 C7          1.7440   -5.6000   -0.3950 c3        1 MOL     -0.049841
     21 C8          3.0160   -5.3840   -1.1720 c         1 MOL      0.596843
     22 O5          3.4630   -6.2510   -1.8810 o         1 MOL     -0.537995
     23 C9          0.5310   -5.8390   -1.2470 c3        1 MOL     -0.087255
     24 C10         0.1100   -4.6110   -2.1350 c3        1 MOL     -0.022899
     25 C11        -0.9680   -4.9650   -3.1050 c3        1 MOL     -0.109692
     26 C12        -1.5390   -3.7130   -3.8500 c3        1 MOL      0.186325
     27 N3         -2.2470   -3.9600   -5.1120 n4        1 MOL     -0.605926
     28 H8          0.7270   -3.8550    0.3130 hn        1 MOL      0.246950
     29 H9          1.9160   -6.5300    0.1480 h1        1 MOL      0.117507
     30 H10        -0.3390   -6.1540   -0.6670 hc        1 MOL      0.049416
     31 H11         0.8820   -6.6000   -1.9530 hc        1 MOL      0.049416
     32 H12         0.9410   -4.1550   -2.6720 hc        1 MOL      0.090975
     33 H13        -0.2550   -3.8380   -1.4550 hc        1 MOL      0.090975
     34 H14        -1.7790   -5.5020   -2.6060 hc        1 MOL      0.031054
     35 H15        -0.4550   -5.6670   -3.7710 hc        1 MOL      0.031054
     36 H16        -0.7450   -2.9850   -4.0280 hx        1 MOL      0.070980
     37 H17        -2.2000   -3.3260   -3.0760 hx        1 MOL      0.070980
     38 H18        -2.9900   -4.5830   -4.8520 hn        1 MOL      0.386236
     39 H19        -2.5980   -3.0660   -5.4180 hn        1 MOL      0.386236
     40 H20        -1.6030   -4.3080   -5.8160 hn        1 MOL      0.386236
     41 N4          3.6800   -4.2080   -0.9830 n         1 MOL     -0.486250
     42 C13         4.8160   -3.7790   -1.8540 c3        1 MOL      0.112008
     43 C14         6.0570   -3.2470   -1.1580 c         1 MOL      0.402737
     44 O6          7.1250   -3.2320   -1.8120 o         1 MOL     -0.532660
     45 C15         4.3340   -2.7330   -2.9150 c3        1 MOL     -0.310919
     46 C16         3.4940   -1.6700   -2.2480 c         1 MOL      0.683517
     47 O7          2.7570   -0.9310   -2.9230 o         1 MOL     -0.717957
     48 O8          3.5870   -1.4040   -1.0200 o         1 MOL     -0.717957
     49 H21         3.3400   -3.5570   -0.2900 hn        1 MOL      0.261008
     50 H22         5.0660   -4.6790   -2.4210 h1        1 MOL      0.102518
     51 H23         3.8420   -3.2280   -3.7510 hc        1 MOL      0.104345
     52 H24         5.2080   -2.1470   -3.2040 hc        1 MOL      0.104345
     53 N5          6.0780   -2.7550    0.0450 n         1 MOL     -0.245218
     54 C17         7.2380   -2.0950    0.6680 c3        1 MOL     -0.197499
     55 C18         7.4500   -0.5930    0.2940 c         1 MOL      0.561066
     56 O9          8.5520   -0.0820    0.3770 o         1 MOL     -0.574937
     57 H25         5.2150   -2.7590    0.5730 hn        1 MOL      0.239004
     58 H26         8.1620   -2.5830    0.3490 h1        1 MOL      0.119405
     59 H27         7.1320   -2.1130    1.7480 h1        1 MOL      0.119405
     60 N6          6.3870    0.0970   -0.0990 n         1 MOL     -0.228765
     61 C19         6.4670    1.4060   -0.7340 c3        1 MOL      0.072786
     62 C20         6.2510    2.5900    0.2800 c         1 MOL      0.309529
     63 O10         6.3240    3.7380   -0.0280 o         1 MOL     -0.478006
     64 C21         5.6040    1.5100   -2.0120 c3        1 MOL     -0.400978
     65 C22         4.3700    2.3120   -1.8190 c         1 MOL      0.504296
     66 N7          4.0810    3.2480   -2.6510 n         1 MOL     -0.401035
     67 O11         3.5880    2.0600   -0.8820 o         1 MOL     -0.651058
     68 H28         5.5090   -0.3860   -0.2140 hn        1 MOL      0.214175
     69 H29         7.4840    1.3940   -1.1080 h1        1 MOL      0.125069
     70 H30         5.3210    0.4810   -2.2090 hc        1 MOL      0.152012
     71 H31         6.2780    1.8640   -2.8010 hc        1 MOL      0.152012
     72 H32         4.6940    3.4060   -3.4310 hn        1 MOL      0.269651
     73 H33         3.1980    3.7430   -2.6070 hn        1 MOL      0.269651
     74 N8          6.0310    2.3330    1.5230 n         1 MOL     -0.156409
     75 C23         5.7670    3.3100    2.5270 c3        1 MOL     -0.221063
     76 C24         4.3160    3.8970    2.6780 c         1 MOL      0.521115
     77 O12         4.0830    4.6430    3.6150 o         1 MOL     -0.565836
     78 H34         5.9150    1.3510    1.7400 hn        1 MOL      0.182255
     79 H35         6.3620    4.2100    2.3920 h1        1 MOL      0.131955
     80 H36         6.1510    2.7970    3.4150 h1        1 MOL      0.131955
     81 N9          3.3540    3.5930    1.8070 n         1 MOL     -0.274870
     82 C25         1.9540    4.0910    2.1170 c3        1 MOL      0.081982
     83 C26         0.8330    3.1570    1.5230 c         1 MOL      0.470045
     84 O13         1.0720    2.3800    0.5810 o         1 MOL     -0.507302
     85 C27         1.8040    5.5520    1.5520 c3        1 MOL     -0.336640
     86 C28         1.7590    5.5720    0.0410 ca        1 MOL      0.153749
     87 C29         0.5310    5.4320   -0.7040 ca        1 MOL     -0.170914
     88 C30         2.9600    5.8420   -0.7040 ca        1 MOL     -0.170914
     89 C31         0.5330    5.4370   -2.1510 ca        1 MOL     -0.247425
     90 C32         2.9350    5.9090   -2.1210 ca        1 MOL     -0.247425
     91 C33         1.7190    5.7260   -2.8410 ca        1 MOL      0.293054
     92 O14         1.7320    5.5800   -4.2350 oh        1 MOL     -0.533610
     93 H37         3.5440    3.0050    1.0070 hn        1 MOL      0.267437
     94 H38         1.8040    3.9360    3.1900 h1        1 MOL      0.092933
     95 H39         2.7410    5.9940    1.8960 hc        1 MOL      0.129089
     96 H40         0.8810    5.9880    1.9370 hc        1 MOL      0.129089
     97 H41        -0.4140    5.2730   -0.1870 ha        1 MOL      0.169115
     98 H42         3.8880    5.9180   -0.1620 ha        1 MOL      0.169115
     99 H43        -0.3830    5.1900   -2.6770 ha        1 MOL      0.143613
    100 H44         3.8590    5.9100   -2.6830 ha        1 MOL      0.143613
    101 H45         0.9020    5.5060   -4.7060 ho        1 MOL      0.382606
    102 N10        -0.3960    3.2430    2.1480 n         1 MOL     -0.496277
    103 C34        -1.6030    2.5390    1.7310 c3        1 MOL     -0.069242
    104 C35        -2.8240    3.4760    1.4670 c         1 MOL      0.427702
    105 O15        -2.9950    4.5500    2.0580 o         1 MOL     -0.505663
    106 C36        -1.9050    1.2980    2.5980 c3        1 MOL      0.250308
    107 C37        -2.3690    1.7730    4.0030 c3        1 MOL      0.011110
    108 C38        -0.6520    0.4630    2.7490 c3        1 MOL     -0.292277
    109 C39        -2.3110    0.8580    5.2400 c3        1 MOL     -0.229551
    110 H46        -0.5210    3.9920    2.8070 hn        1 MOL      0.323397
    111 H47        -1.3720    2.1050    0.7470 h1        1 MOL      0.072735
    112 H48        -2.6240    0.6050    2.1510 hc        1 MOL     -0.111872
    113 H49        -3.3920    2.1120    3.8510 hc        1 MOL      0.003903
    114 H50        -1.7620    2.6500    4.2380 hc        1 MOL      0.003903
    115 H51        -0.7940   -0.4390    3.3420 hc        1 MOL      0.104408
    116 H52        -0.4520    0.1430    1.7210 hc        1 MOL      0.104408
    117 H53         0.2400    0.9780    3.1110 hc        1 MOL      0.104408
    118 H54        -2.9390    0.0130    4.9850 hc        1 MOL      0.063288
    119 H55        -1.2850    0.5270    5.4370 hc        1 MOL      0.063288
    120 H56        -2.6340    1.3910    6.1340 hc        1 MOL      0.063288
    121 N11        -3.7410    2.8860    0.6780 n         1 MOL     -0.224046
    122 C40        -5.1070    3.4610    0.3890 c3        1 MOL     -0.073013
    123 C41        -6.0910    2.2520    0.2860 c         1 MOL      0.394954
    124 O16        -5.7410    1.0900    0.5290 o         1 MOL     -0.333570
    125 C42        -5.0870    4.3310   -0.8490 c3        1 MOL      0.040501
    126 O17        -4.8500    3.5200   -1.9770 oh        1 MOL     -0.541166
    127 H57        -3.6670    1.8950    0.4790 hn        1 MOL      0.178537
    128 H58        -5.3450    4.1210    1.2210 h1        1 MOL      0.102449
    129 H59        -4.3450    5.1280   -0.8780 h1        1 MOL      0.076241
    130 H60        -6.0830    4.7480   -0.9990 h1        1 MOL      0.076241
    131 H61        -3.9240    3.3110   -1.9460 ho        1 MOL      0.361601
    132 N12        -7.3890    2.5600    0.0560 n         1 MOL     -0.425649
    133 C43        -8.6130    1.7230    0.0890 c3        1 MOL      0.216833
    134 C44        -8.3330    0.3050   -0.3230 c         1 MOL      0.487205
    135 O18        -8.8080   -0.6270    0.2940 o         1 MOL     -0.501601
    136 C45        -9.7220    2.4580   -0.6770 c3        1 MOL     -0.372680
    137 H62        -7.6210    3.5400   -0.0470 hn        1 MOL      0.281794
    138 H63        -8.9810    1.6330    1.1150 h1        1 MOL      0.034676
    139 H64        -9.7490    3.5140   -0.4190 hc        1 MOL      0.110368
    140 H65        -9.3400    2.6160   -1.6830 hc        1 MOL      0.110368
    141 H66       -10.6630    1.9130   -0.6120 hc        1 MOL      0.110368
    142 N13        -7.7380    0.2450   -1.4860 n         1 MOL     -0.297495
    143 C46        -7.7030   -1.0050   -2.2650 c3        1 MOL     -0.027567
    144 C47        -6.6720   -1.9510   -1.6430 c         1 MOL      0.385307
    145 O19        -6.8210   -3.1750   -1.6290 o         1 MOL     -0.503062
    146 C48        -7.3580   -0.6990   -3.7580 c3        1 MOL     -0.252412
    147 H67        -7.4870    1.0590   -2.0430 hn        1 MOL      0.238086
    148 H68        -8.6690   -1.4720   -2.0890 h1        1 MOL      0.123690
    149 H69        -7.3470   -1.6340   -4.3200 hc        1 MOL      0.081825
    150 H70        -8.1470   -0.0650   -4.1700 hc        1 MOL      0.081825
    151 H71        -6.3390   -0.3460   -3.9140 hc        1 MOL      0.081825
    152 N14        -5.5360   -1.4070   -1.0940 n         1 MOL     -0.142722
    153 C49        -4.5350   -2.2040   -0.3750 c3        1 MOL     -0.024498
    154 C50        -4.9390   -2.5350    1.0560 c         1 MOL      0.401189
    155 O20        -4.7050   -3.6760    1.4810 o         1 MOL     -0.518989
    156 C51        -3.1550   -1.5370   -0.4030 c3        1 MOL      0.131499
    157 C52        -2.7100   -0.9010   -1.7230 c3        1 MOL     -0.071277
    158 C53        -1.2800   -0.4220   -1.6070 c         1 MOL      0.824315
    159 O21        -0.3550   -1.1260   -2.0910 o         1 MOL     -0.816650
    160 O22        -0.8840    0.6310   -1.1270 o         1 MOL     -0.816650
    161 H72        -5.4440   -0.3970   -1.1930 hn        1 MOL      0.145747
    162 H73        -4.3630   -3.1080   -0.9570 h1        1 MOL      0.055055
    163 H74        -2.4410   -2.3210   -0.1540 hc        1 MOL      0.013789
    164 H75        -3.1870   -0.7680    0.3780 hc        1 MOL      0.013789
    165 H76        -3.2920   -0.0150   -1.9700 hc        1 MOL     -0.057000
    166 H77        -2.7540   -1.6960   -2.4740 hc        1 MOL     -0.057000
    167 N15        -5.6730   -1.6700    1.7650 n         1 MOL     -0.065391
    168 C54        -6.4260   -2.0220    2.9660 c3        1 MOL     -0.208967
    169 H78        -5.9440   -1.5810    3.8390 h1        1 MOL      0.094926
    170 H79        -7.4430   -1.6420    2.8820 h1        1 MOL      0.094926
    171 H80        -6.4500   -3.1070    3.0750 h1        1 MOL      0.094926
    172 H81        -5.7950   -0.7570    1.3550 hn        1 MOL      0.081295
    173 Ca1         1.5560    0.3020   -0.9070 Ca        1 MOL      1.842749
    174 O23         1.2120    2.0040   -3.0000 oh        1 MOL     -0.758045
    175 H82         0.6860    2.7720   -2.7920 ho        1 MOL      0.372553
    176 H83         1.3630    2.0650   -3.9410 ho        1 MOL      0.372553
@<TRIPOS>BOND
     1    1    2 1   
     2    1    4 1   
     3    1    5 1   
     4    1    6 1   
     5    2    3 2   
     6    2    7 1   
     7    7    8 1   
     8    7   15 1   
     9    8    9 1   
    10    8   11 1   
    11    8   16 1   
    12    9   10 2   
    13    9   19 1   
    14   11   12 1   
    15   11   17 1   
    16   11   18 1   
    17   12   13 1   
    18   12   14 1   
    19   19   20 1   
    20   19   28 1   
    21   20   21 1   
    22   20   23 1   
    23   20   29 1   
    24   21   22 2   
    25   21   41 1   
    26   23   24 1   
    27   23   30 1   
    28   23   31 1   
    29   24   25 1   
    30   24   32 1   
    31   24   33 1   
    32   25   26 1   
    33   25   34 1   
    34   25   35 1   
    35   26   27 1   
    36   26   36 1   
    37   26   37 1   
    38   27   38 1   
    39   27   39 1   
    40   27   40 1   
    41   41   42 1   
    42   41   49 1   
    43   42   43 1   
    44   42   45 1   
    45   42   50 1   
    46   43   44 2   
    47   43   53 1   
    48   45   46 1   
    49   45   51 1   
    50   45   52 1   
    51   46   47 1   
    52   46   48 1   
    53   53   54 1   
    54   53   57 1   
    55   54   55 1   
    56   54   58 1   
    57   54   59 1   
    58   55   56 2   
    59   55   60 1   
    60   60   61 1   
    61   60   68 1   
    62   61   62 1   
    63   61   64 1   
    64   61   69 1   
    65   62   63 2   
    66   62   74 1   
    67   64   65 1   
    68   64   70 1   
    69   64   71 1   
    70   65   66 1   
    71   65   67 2   
    72   66   72 1   
    73   66   73 1   
    74   74   75 1   
    75   74   78 1   
    76   75   76 1   
    77   75   79 1   
    78   75   80 1   
    79   76   77 2   
    80   76   81 1   
    81   81   82 1   
    82   81   93 1   
    83   82   83 1   
    84   82   85 1   
    85   82   94 1   
    86   83   84 2   
    87   83  102 1   
    88   85   86 1   
    89   85   95 1   
    90   85   96 1   
    91   86   87 ar  
    92   86   88 ar  
    93   87   89 ar  
    94   87   97 1   
    95   88   90 ar  
    96   88   98 1   
    97   89   91 ar  
    98   89   99 1   
    99   90   91 ar  
   100   90  100 1   
   101   91   92 1   
   102   92  101 1   
   103  102  103 1   
   104  102  110 1   
   105  103  104 1   
   106  103  106 1   
   107  103  111 1   
   108  104  105 2   
   109  104  121 1   
   110  106  107 1   
   111  106  108 1   
   112  106  112 1   
   113  107  109 1   
   114  107  113 1   
   115  107  114 1   
   116  108  115 1   
   117  108  116 1   
   118  108  117 1   
   119  109  118 1   
   120  109  119 1   
   121  109  120 1   
   122  121  122 1   
   123  121  127 1   
   124  122  123 1   
   125  122  125 1   
   126  122  128 1   
   127  123  124 2   
   128  123  132 1   
   129  125  126 1   
   130  125  129 1   
   131  125  130 1   
   132  126  131 1   
   133  132  133 1   
   134  132  137 1   
   135  133  134 1   
   136  133  136 1   
   137  133  138 1   
   138  134  135 2   
   139  134  142 1   
   140  136  139 1   
   141  136  140 1   
   142  136  141 1   
   143  142  143 1   
   144  142  147 1   
   145  143  144 1   
   146  143  146 1   
   147  143  148 1   
   148  144  145 2   
   149  144  152 1   
   150  146  149 1   
   151  146  150 1   
   152  146  151 1   
   153  152  153 1   
   154  152  161 1   
   155  153  154 1   
   156  153  156 1   
   157  153  162 1   
   158  154  155 2   
   159  154  167 1   
   160  156  157 1   
   161  156  163 1   
   162  156  164 1   
   163  157  158 1   
   164  157  165 1   
   165  157  166 1   
   166  158  159 1   
   167  158  160 1   
   168  167  168 1   
   169  167  172 1   
   170  168  169 1   
   171  168  170 1   
   172  168  171 1   
   173  174  175 1   
   174  174  176 1   
@<TRIPOS>SUBSTRUCTURE
     1 MOL         1 TEMP              0 ****  ****    0 ROOT
