@<TRIPOS>MOLECULE
MOL
  176   174     1     0     0
SMALL
resp


@<TRIPOS>ATOM
      1 C1          2.6550    3.0660    4.5970 c3        1 MOL     -0.244095
      2 C2          1.6790    2.9100    3.4150 c         1 MOL      0.618374
      3 O1          2.0960    2.9400    2.2600 o         1 MOL     -0.597392
      4 H1          3.4220    3.7980    4.3410 hc        1 MOL      0.078428
      5 H2          2.1090    3.4060    5.4780 hc        1 MOL      0.078428
      6 H3          3.1270    2.1060    4.8090 hc        1 MOL      0.078428
      7 N1          0.3900    2.7660    3.6430 n         1 MOL     -0.607864
      8 C3         -0.7110    2.4370    2.7230 c3        1 MOL     -0.017328
      9 C4         -1.1670    3.5350    1.7670 c         1 MOL      0.743840
     10 O2         -2.3170    3.9700    1.6620 o         1 MOL     -0.626059
     11 C5         -1.7980    1.7170    3.4650 c3        1 MOL     -0.031532
     12 C6         -2.7620    0.9750    2.4540 c         1 MOL      0.533518
     13 O3         -4.0230    1.0740    2.6790 o         1 MOL     -0.635881
     14 O4         -2.2520    0.3280    1.5040 o         1 MOL     -0.635881
     15 H4          0.0230    2.9660    4.5570 hn        1 MOL      0.336382
     16 H5         -0.2150    1.7100    2.0820 h1        1 MOL      0.013059
     17 H6         -2.3990    2.3120    4.1430 hc        1 MOL      0.027033
     18 H7         -1.3280    1.0140    4.1600 hc        1 MOL      0.027033
     19 N2         -0.2140    4.1290    0.9890 n         1 MOL     -0.415794
     20 C7         -0.3880    5.5000    0.4360 c3        1 MOL     -0.329101
     21 C8         -1.2000    5.4510   -0.8480 c         1 MOL      0.659810
     22 O5         -1.1070    6.3640   -1.6810 o         1 MOL     -0.601909
     23 C9          1.0760    5.9350    0.3400 c3        1 MOL     -0.002034
     24 C10         1.8000    5.2460   -0.8440 c3        1 MOL     -0.133489
     25 C11         3.3410    5.3150   -0.7770 c3        1 MOL     -0.001340
     26 C12         3.9360    6.7320   -0.8050 c3        1 MOL     -0.108957
     27 N3          3.4790    7.5490   -1.9540 n4        1 MOL     -0.227735
     28 H8          0.6890    3.6750    0.9600 hn        1 MOL      0.418657
     29 H9         -0.9760    6.1290    1.1110 h1        1 MOL      0.189674
     30 H10         1.6190    5.7810    1.2650 hc        1 MOL      0.044224
     31 H11         1.1490    7.0300    0.3130 hc        1 MOL      0.044224
     32 H12         1.3870    5.5590   -1.8080 hc        1 MOL      0.053282
     33 H13         1.6730    4.1800   -0.6430 hc        1 MOL      0.053282
     34 H14         3.7080    4.7410   -1.6320 hc        1 MOL      0.070619
     35 H15         3.5990    4.7440    0.1130 hc        1 MOL      0.070619
     36 H16         5.0280    6.6760   -0.8730 hx        1 MOL      0.110864
     37 H17         3.5280    7.2090    0.0880 hx        1 MOL      0.110864
     38 H18         2.4730    7.6090   -2.0110 hn        1 MOL      0.296652
     39 H19         3.8640    8.4810   -1.9350 hn        1 MOL      0.296652
     40 H20         3.8140    7.1620   -2.8200 hn        1 MOL      0.296652
     41 N4         -2.0640    4.4450   -1.0400 n         1 MOL     -0.312450
     42 C13        -3.1150    4.4570   -2.0520 c3        1 MOL     -0.100745
     43 C14        -4.4820    4.2330   -1.4690 c         1 MOL      0.602200
     44 O6         -5.4630    4.3810   -2.1580 o         1 MOL     -0.562213
     45 C15        -2.7770    3.3590   -3.0970 c3        1 MOL     -0.106935
     46 C16        -2.4600    2.0270   -2.4790 c         1 MOL      0.724681
     47 O7         -1.7100    1.2560   -3.0890 o         1 MOL     -0.742669
     48 O8         -2.9360    1.6710   -1.3540 o         1 MOL     -0.742669
     49 H21        -2.0400    3.6810   -0.3860 hn        1 MOL      0.144648
     50 H22        -3.2070    5.4460   -2.5010 h1        1 MOL      0.115351
     51 H23        -1.8840    3.5480   -3.6960 hc        1 MOL      0.050008
     52 H24        -3.5490    3.2760   -3.8610 hc        1 MOL      0.050008
     53 N5         -4.6050    3.7860   -0.2020 n         1 MOL     -0.463558
     54 C17        -5.9470    3.5890    0.3810 c3        1 MOL     -0.238686
     55 C18        -6.6150    2.2750    0.0910 c         1 MOL      0.568467
     56 O9         -7.6670    1.9830    0.6410 o         1 MOL     -0.556467
     57 H25        -3.7700    3.4220    0.2290 hn        1 MOL      0.433179
     58 H26        -6.5990    4.4300    0.1640 h1        1 MOL      0.149737
     59 H27        -5.8200    3.6180    1.4630 h1        1 MOL      0.149737
     60 N6         -5.9280    1.3030   -0.6230 n         1 MOL     -0.310693
     61 C19        -6.4470   -0.0440   -0.8500 c3        1 MOL     -0.055159
     62 C20        -6.3290   -1.1250    0.2650 c         1 MOL      0.322470
     63 O10        -6.8430   -2.2420    0.1460 o         1 MOL     -0.456053
     64 C21        -5.9080   -0.5180   -2.2390 c3        1 MOL     -0.198915
     65 C22        -4.4770   -1.1210   -2.3310 c         1 MOL      0.794254
     66 N7         -3.9220   -1.1970   -3.5080 n         1 MOL     -0.759819
     67 O11        -3.8600   -1.4290   -1.3650 o         1 MOL     -0.621316
     68 H28        -4.9800    1.5480   -0.8420 hn        1 MOL      0.215933
     69 H29        -7.5300    0.0890   -0.9400 h1        1 MOL      0.131718
     70 H30        -5.7690    0.2710   -2.9850 hc        1 MOL      0.061691
     71 H31        -6.5470   -1.3020   -2.6310 hc        1 MOL      0.061691
     72 H32        -4.4870   -0.9620   -4.3220 hn        1 MOL      0.337330
     73 H33        -2.9910   -1.5740   -3.6440 hn        1 MOL      0.337330
     74 N8         -5.6640   -0.9000    1.3910 n         1 MOL     -0.052683
     75 C23        -5.7480   -1.7360    2.6090 c3        1 MOL     -0.170506
     76 C24        -4.7750   -2.9140    2.5980 c         1 MOL      0.460193
     77 O12        -4.8990   -3.7890    3.4650 o         1 MOL     -0.589590
     78 H34        -5.1160   -0.0670    1.4900 hn        1 MOL      0.187682
     79 H35        -6.7410   -2.1960    2.5750 h1        1 MOL      0.102795
     80 H36        -5.6380   -1.1520    3.5230 h1        1 MOL      0.102795
     81 N9         -3.7530   -2.9450    1.8070 n         1 MOL      0.101778
     82 C25        -2.5650   -3.8690    1.8940 c3        1 MOL     -0.292932
     83 C26        -1.3030   -3.2790    1.3880 c         1 MOL      0.653725
     84 O13        -1.2990   -2.5000    0.4520 o         1 MOL     -0.735594
     85 C27        -2.9400   -5.1910    1.2410 c3        1 MOL     -0.149726
     86 C28        -3.6310   -5.0290   -0.1370 ca        1 MOL      0.025530
     87 C29        -2.8300   -4.7490   -1.2850 ca        1 MOL     -0.170126
     88 C30        -5.0290   -5.0790   -0.3090 ca        1 MOL     -0.170126
     89 C31        -3.4430   -4.6790   -2.5480 ca        1 MOL     -0.275207
     90 C32        -5.6590   -4.8830   -1.6060 ca        1 MOL     -0.275207
     91 C33        -4.8590   -4.6490   -2.7090 ca        1 MOL      0.365474
     92 O14        -5.4010   -4.4410   -3.9720 oh        1 MOL     -0.457196
     93 H37        -3.6370   -2.1690    1.1710 hn        1 MOL      0.063965
     94 H38        -2.4160   -4.1590    2.9300 h1        1 MOL      0.105393
     95 H39        -3.6600   -5.7430    1.8570 hc        1 MOL      0.088975
     96 H40        -2.0020   -5.7580    1.2360 hc        1 MOL      0.088975
     97 H41        -1.7580   -4.7510   -1.1180 ha        1 MOL      0.171588
     98 H42        -5.6440   -5.1850    0.5710 ha        1 MOL      0.171588
     99 H43        -2.8890   -4.6120   -3.4680 ha        1 MOL      0.146081
    100 H44        -6.7330   -4.8760   -1.7230 ha        1 MOL      0.146081
    101 H45        -4.7100   -4.1290   -4.5550 ho        1 MOL      0.290469
    102 N10        -0.2540   -3.5520    2.1040 n         1 MOL     -0.292864
    103 C34         1.1000   -2.9700    1.8860 c3        1 MOL     -0.262459
    104 C35         1.7940   -3.7620    0.7510 c         1 MOL      0.734619
    105 O15         1.6430   -4.9490    0.6710 o         1 MOL     -0.595221
    106 C36         1.8760   -2.9160    3.2780 c3        1 MOL      0.173671
    107 C37         1.0490   -2.2140    4.4140 c3        1 MOL     -0.273897
    108 C38         3.2020   -2.3350    3.0180 c3        1 MOL     -0.237388
    109 C39         0.3970   -0.8880    4.0270 c3        1 MOL      0.082738
    110 H46        -0.3750   -4.2350    2.8410 hn        1 MOL      0.307170
    111 H47         1.0040   -1.9370    1.5530 h1        1 MOL      0.153854
    112 H48         2.0280   -3.9310    3.6530 hc        1 MOL     -0.000500
    113 H49         1.7590   -1.9470    5.1960 hc        1 MOL      0.073297
    114 H50         0.2680   -2.9350    4.6610 hc        1 MOL      0.073297
    115 H51         3.0930   -1.2930    2.6930 hc        1 MOL      0.053894
    116 H52         3.8180   -2.4040    3.9180 hc        1 MOL      0.053894
    117 H53         3.7030   -2.9310    2.2530 hc        1 MOL      0.053894
    118 H54        -0.4740   -1.1580    3.4370 hc        1 MOL      0.011494
    119 H55         0.1020   -0.4230    4.9580 hc        1 MOL      0.011494
    120 H56         1.0340   -0.2050    3.4630 hc        1 MOL      0.011494
    121 N11         2.5640   -3.1160   -0.1140 n         1 MOL     -0.312936
    122 C40         3.5490   -3.5960   -1.0620 c3        1 MOL     -0.164338
    123 C41         4.9460   -3.2190   -0.6420 c         1 MOL      0.628016
    124 O16         5.2260   -2.5010    0.3990 o         1 MOL     -0.468863
    125 C42         3.1890   -2.9890   -2.4350 c3        1 MOL      0.065415
    126 O17         2.8360   -1.5730   -2.3500 oh        1 MOL     -0.583580
    127 H57         2.5420   -2.1090   -0.0970 hn        1 MOL      0.176263
    128 H58         3.4540   -4.6790   -1.0680 h1        1 MOL      0.105724
    129 H59         2.4520   -3.5940   -2.9620 h1        1 MOL      0.058758
    130 H60         3.9610   -3.2440   -3.1670 h1        1 MOL      0.058758
    131 H61         1.9830   -1.5030   -1.9060 ho        1 MOL      0.415361
    132 N12         5.9160   -3.8650   -1.3020 n         1 MOL     -0.535785
    133 C43         7.3270   -3.6150   -1.0300 c3        1 MOL      0.190781
    134 C44         7.7360   -2.1040   -1.3100 c         1 MOL      0.386277
    135 O18         8.3060   -1.4010   -0.5010 o         1 MOL     -0.489612
    136 C45         8.1570   -4.6850   -1.7050 c3        1 MOL     -0.393579
    137 H62         5.5650   -4.4600   -2.0380 hn        1 MOL      0.301874
    138 H63         7.4740   -3.8110    0.0270 h1        1 MOL      0.095829
    139 H64         8.0960   -4.6390   -2.7910 hc        1 MOL      0.120147
    140 H65         9.1740   -4.5240   -1.3570 hc        1 MOL      0.120147
    141 H66         7.9630   -5.6700   -1.2940 hc        1 MOL      0.120147
    142 N13         7.2470   -1.5230   -2.3860 n         1 MOL     -0.345653
    143 C46         7.3070   -0.0930   -2.7000 c3        1 MOL      0.226663
    144 C47         6.7600    0.8120   -1.4970 c         1 MOL      0.313430
    145 O19         7.2410    1.8600   -1.1920 o         1 MOL     -0.481048
    146 C48         6.5640    0.0940   -3.9430 c3        1 MOL     -0.499319
    147 H67         6.7770   -2.1530   -3.0260 hn        1 MOL      0.240156
    148 H68         8.3660    0.1400   -2.7900 h1        1 MOL      0.069694
    149 H69         5.6290   -0.4630   -3.8630 hc        1 MOL      0.139304
    150 H70         6.3530    1.1590   -3.8740 hc        1 MOL      0.139304
    151 H71         7.2430   -0.1890   -4.7490 hc        1 MOL      0.139304
    152 N14         5.6220    0.4220   -0.8320 n         1 MOL     -0.036581
    153 C49         5.0650    1.0490    0.3890 c3        1 MOL     -0.244705
    154 C50         5.8790    0.9030    1.6730 c         1 MOL      0.498156
    155 O20         6.0010    1.7640    2.5590 o         1 MOL     -0.565543
    156 C51         3.6510    0.5040    0.6000 c3        1 MOL     -0.087240
    157 C52         2.6830    1.1150   -0.4690 c3        1 MOL      0.148542
    158 C53         1.2510    0.6000   -0.5040 c         1 MOL      0.643351
    159 O21         1.0640   -0.6370   -0.6810 o         1 MOL     -0.725052
    160 O22         0.2870    1.4130   -0.4550 o         1 MOL     -0.725052
    161 H72         5.1110   -0.4110   -1.0900 hn        1 MOL      0.122684
    162 H73         5.0880    2.1230    0.1900 h1        1 MOL      0.102353
    163 H74         3.3200    0.7540    1.6110 hc        1 MOL      0.102381
    164 H75         3.6800   -0.5820    0.6020 hc        1 MOL      0.102381
    165 H76         3.0810    1.0240   -1.4820 hc        1 MOL     -0.056260
    166 H77         2.7000    2.2050   -0.3470 hc        1 MOL     -0.056260
    167 N15         6.5690   -0.2150    1.7480 n         1 MOL     -0.016263
    168 C54         7.4120   -0.5500    2.8520 c3        1 MOL     -0.321210
    169 H78         8.1730    0.2200    2.9750 h1        1 MOL      0.112576
    170 H79         6.8140   -0.6170    3.7600 h1        1 MOL      0.112576
    171 H80         7.8940   -1.5090    2.6620 h1        1 MOL      0.112576
    172 H81         6.4000   -0.8920    1.0220 hn        1 MOL      0.099167
    173 Ca1        -1.4420   -0.3880   -0.9710 Ca        1 MOL      1.736504
    174 O23        -0.6220   -1.9940   -2.7910 oh        1 MOL     -0.791026
    175 H82        -0.6110   -2.9390   -2.8750 ho        1 MOL      0.386172
    176 H83        -0.2010   -1.6750   -3.5930 ho        1 MOL      0.386172
@<TRIPOS>BOND
     1    1    2 1   
     2    1    4 1   
     3    1    5 1   
     4    1    6 1   
     5    2    3 2   
     6    2    7 1   
     7    7    8 1   
     8    7   15 1   
     9    8    9 1   
    10    8   11 1   
    11    8   16 1   
    12    9   10 2   
    13    9   19 1   
    14   11   12 1   
    15   11   17 1   
    16   11   18 1   
    17   12   13 1   
    18   12   14 1   
    19   19   20 1   
    20   19   28 1   
    21   20   21 1   
    22   20   23 1   
    23   20   29 1   
    24   21   22 2   
    25   21   41 1   
    26   23   24 1   
    27   23   30 1   
    28   23   31 1   
    29   24   25 1   
    30   24   32 1   
    31   24   33 1   
    32   25   26 1   
    33   25   34 1   
    34   25   35 1   
    35   26   27 1   
    36   26   36 1   
    37   26   37 1   
    38   27   38 1   
    39   27   39 1   
    40   27   40 1   
    41   41   42 1   
    42   41   49 1   
    43   42   43 1   
    44   42   45 1   
    45   42   50 1   
    46   43   44 2   
    47   43   53 1   
    48   45   46 1   
    49   45   51 1   
    50   45   52 1   
    51   46   47 1   
    52   46   48 1   
    53   53   54 1   
    54   53   57 1   
    55   54   55 1   
    56   54   58 1   
    57   54   59 1   
    58   55   56 2   
    59   55   60 1   
    60   60   61 1   
    61   60   68 1   
    62   61   62 1   
    63   61   64 1   
    64   61   69 1   
    65   62   63 2   
    66   62   74 1   
    67   64   65 1   
    68   64   70 1   
    69   64   71 1   
    70   65   66 1   
    71   65   67 2   
    72   66   72 1   
    73   66   73 1   
    74   74   75 1   
    75   74   78 1   
    76   75   76 1   
    77   75   79 1   
    78   75   80 1   
    79   76   77 2   
    80   76   81 1   
    81   81   82 1   
    82   81   93 1   
    83   82   83 1   
    84   82   85 1   
    85   82   94 1   
    86   83   84 2   
    87   83  102 1   
    88   85   86 1   
    89   85   95 1   
    90   85   96 1   
    91   86   87 ar  
    92   86   88 ar  
    93   87   89 ar  
    94   87   97 1   
    95   88   90 ar  
    96   88   98 1   
    97   89   91 ar  
    98   89   99 1   
    99   90   91 ar  
   100   90  100 1   
   101   91   92 1   
   102   92  101 1   
   103  102  103 1   
   104  102  110 1   
   105  103  104 1   
   106  103  106 1   
   107  103  111 1   
   108  104  105 2   
   109  104  121 1   
   110  106  107 1   
   111  106  108 1   
   112  106  112 1   
   113  107  109 1   
   114  107  113 1   
   115  107  114 1   
   116  108  115 1   
   117  108  116 1   
   118  108  117 1   
   119  109  118 1   
   120  109  119 1   
   121  109  120 1   
   122  121  122 1   
   123  121  127 1   
   124  122  123 1   
   125  122  125 1   
   126  122  128 1   
   127  123  124 2   
   128  123  132 1   
   129  125  126 1   
   130  125  129 1   
   131  125  130 1   
   132  126  131 1   
   133  132  133 1   
   134  132  137 1   
   135  133  134 1   
   136  133  136 1   
   137  133  138 1   
   138  134  135 2   
   139  134  142 1   
   140  136  139 1   
   141  136  140 1   
   142  136  141 1   
   143  142  143 1   
   144  142  147 1   
   145  143  144 1   
   146  143  146 1   
   147  143  148 1   
   148  144  145 2   
   149  144  152 1   
   150  146  149 1   
   151  146  150 1   
   152  146  151 1   
   153  152  153 1   
   154  152  161 1   
   155  153  154 1   
   156  153  156 1   
   157  153  162 1   
   158  154  155 2   
   159  154  167 1   
   160  156  157 1   
   161  156  163 1   
   162  156  164 1   
   163  157  158 1   
   164  157  165 1   
   165  157  166 1   
   166  158  159 1   
   167  158  160 1   
   168  167  168 1   
   169  167  172 1   
   170  168  169 1   
   171  168  170 1   
   172  168  171 1   
   173  174  175 1   
   174  174  176 1   
@<TRIPOS>SUBSTRUCTURE
     1 MOL         1 TEMP              0 ****  ****    0 ROOT
