@<TRIPOS>MOLECULE
MOL
  182   178     1     0     0
SMALL
resp


@<TRIPOS>ATOM
      1 C1          1.8170    2.6300    6.3350 c3        1 MOL     -0.242976
      2 C2          1.5600    2.4140    4.8580 c         1 MOL      0.770205
      3 O1          2.4550    2.5930    4.0450 o         1 MOL     -0.592800
      4 H1          2.2800    1.7380    6.7570 hc        1 MOL      0.059694
      5 H2          2.4860    3.4810    6.4670 hc        1 MOL      0.059694
      6 H3          0.8730    2.8250    6.8450 hc        1 MOL      0.059694
      7 N1          0.2900    2.0440    4.4850 n         1 MOL     -0.685300
      8 C3         -0.1640    1.9100    3.0880 c3        1 MOL      0.047967
      9 C4         -0.0300    3.3110    2.5680 c         1 MOL      0.673259
     10 O2         -0.3130    4.3390    3.2540 o         1 MOL     -0.582879
     11 C5         -1.6290    1.3640    2.9280 c3        1 MOL     -0.107885
     12 C6         -2.3490    1.2820    1.6070 c         1 MOL      0.659472
     13 O3         -1.8260    1.6420    0.5600 o         1 MOL     -0.710233
     14 O4         -3.5090    0.8120    1.5450 o         1 MOL     -0.710233
     15 H4         -0.3560    1.9500    5.2570 hn        1 MOL      0.344943
     16 H5          0.5560    1.2910    2.5320 h1        1 MOL      0.063113
     17 H6         -2.2600    1.8400    3.6750 hc        1 MOL      0.042693
     18 H7         -1.5810    0.3010    3.1480 hc        1 MOL      0.042693
     19 N2          0.3990    3.4380    1.3330 n         1 MOL     -0.491505
     20 C7          0.7910    4.8060    0.7900 c3        1 MOL     -0.140261
     21 C8         -0.3090    5.4620   -0.0210 c         1 MOL      0.533732
     22 O5         -0.3740    6.6900   -0.0310 o         1 MOL     -0.557779
     23 C9          2.0780    4.5320   -0.0100 c3        1 MOL      0.059443
     24 C10         2.8740    5.7990   -0.3090 c3        1 MOL     -0.345516
     25 C11         3.9090    5.4800   -1.4330 c3        1 MOL      0.084175
     26 C12         5.0780    6.5480   -1.5370 c3        1 MOL      0.060308
     27 N3          5.8280    6.2400   -2.7310 n4        1 MOL     -0.196093
     28 H8          0.4600    2.6270    0.7300 hn        1 MOL      0.199432
     29 H9          0.9150    5.3880    1.6990 h1        1 MOL      0.144607
     30 H10         1.9190    3.8950   -0.8770 hc        1 MOL      0.123406
     31 H11         2.7640    4.1360    0.7400 hc        1 MOL      0.123406
     32 H12         3.4540    6.0470    0.5810 hc        1 MOL      0.116330
     33 H13         2.2110    6.5830   -0.6800 hc        1 MOL      0.116330
     34 H14         3.3750    5.4800   -2.3790 hc        1 MOL     -0.024747
     35 H15         4.2550    4.4500   -1.3460 hc        1 MOL     -0.024747
     36 H16         5.6860    6.4500   -0.6350 hx        1 MOL      0.073280
     37 H17         4.7400    7.5780   -1.6400 hx        1 MOL      0.073280
     38 H18         5.9410    5.2450   -2.8490 hn        1 MOL      0.282347
     39 H19         5.2790    6.4850   -3.5450 hn        1 MOL      0.282347
     40 H20         6.7440    6.6600   -2.7950 hn        1 MOL      0.282347
     41 N4         -1.1910    4.7030   -0.6960 n         1 MOL     -0.382345
     42 C13        -2.3260    5.3410   -1.3110 c3        1 MOL      0.220474
     43 C14        -3.6210    5.2230   -0.4780 c         1 MOL      0.407219
     44 O6         -4.5710    6.0270   -0.7580 o         1 MOL     -0.538064
     45 C15        -2.6290    4.8060   -2.7680 c3        1 MOL     -0.567316
     46 C16        -2.4040    3.3300   -3.0890 c         1 MOL      0.829046
     47 O7         -2.5250    3.0270   -4.2980 o         1 MOL     -0.724012
     48 O8         -2.1460    2.5290   -2.2110 o         1 MOL     -0.724012
     49 H21        -1.2460    3.7060   -0.5820 hn        1 MOL      0.241928
     50 H22        -2.2210    6.4230   -1.3540 h1        1 MOL      0.064836
     51 H23        -1.8760    5.3340   -3.3530 hc        1 MOL      0.153630
     52 H24        -3.6740    4.9840   -3.0380 hc        1 MOL      0.153630
     53 N5         -3.7060    4.1520    0.3630 n         1 MOL     -0.182679
     54 C17        -4.8350    3.9570    1.3020 c3        1 MOL     -0.240138
     55 C18        -5.8560    2.9820    0.7590 c         1 MOL      0.655426
     56 O9         -6.9870    2.9590    1.2210 o         1 MOL     -0.568969
     57 H25        -3.0250    3.4000    0.3340 hn        1 MOL      0.177051
     58 H26        -5.2900    4.9520    1.3530 h1        1 MOL      0.123122
     59 H27        -4.4360    3.5920    2.2470 h1        1 MOL      0.123122
     60 N6         -5.4360    2.2280   -0.3080 n         1 MOL     -0.387251
     61 C19        -6.2920    1.2480   -1.0710 c3        1 MOL     -0.056758
     62 C20        -6.6670   -0.0890   -0.3390 c         1 MOL      0.379328
     63 O10        -7.5110   -0.8570   -0.8180 o         1 MOL     -0.515544
     64 C21        -5.7110    0.9540   -2.4500 c3        1 MOL     -0.349832
     65 C22        -4.6600   -0.0830   -2.4460 c         1 MOL      0.709505
     66 N7         -4.9010   -1.1270   -3.1900 n         1 MOL     -0.815018
     67 O11        -3.7210   -0.1330   -1.6680 o         1 MOL     -0.651509
     68 H28        -4.4380    2.2480   -0.4420 hn        1 MOL      0.264595
     69 H29        -7.2290    1.7980   -1.2120 h1        1 MOL      0.150321
     70 H30        -5.2530    1.8510   -2.8870 hc        1 MOL      0.148797
     71 H31        -6.4710    0.5710   -3.1390 hc        1 MOL      0.148797
     72 H32        -5.8230   -1.3220   -3.5340 hn        1 MOL      0.380075
     73 H33        -4.2110   -1.8630   -3.2650 hn        1 MOL      0.380075
     74 N8         -6.0510   -0.2850    0.8470 n         1 MOL     -0.106117
     75 C23        -6.3170   -1.3980    1.8280 c3        1 MOL     -0.379902
     76 C24        -5.3000   -2.5030    1.8480 c         1 MOL      0.572015
     77 O12        -5.5160   -3.5690    2.4380 o         1 MOL     -0.531674
     78 H34        -5.2860    0.3340    1.0670 hn        1 MOL      0.217633
     79 H35        -7.3250   -1.8310    1.7540 h1        1 MOL      0.171155
     80 H36        -6.2360   -0.8770    2.7810 h1        1 MOL      0.171155
     81 N9         -4.2130   -2.2980    1.1470 n         1 MOL     -0.501394
     82 C25        -3.1770   -3.2240    0.9080 c3        1 MOL      0.263124
     83 C26        -1.7220   -2.6070    0.9390 c         1 MOL      0.416669
     84 O13        -1.5440   -1.5580    0.3870 o         1 MOL     -0.485470
     85 C27        -3.4020   -3.9690   -0.3890 c3        1 MOL      0.185239
     86 C28        -4.7980   -4.6070   -0.6360 ca        1 MOL     -0.093911
     87 C29        -4.8890   -5.9760   -0.3350 ca        1 MOL     -0.128270
     88 C30        -6.0020   -3.9440   -1.0530 ca        1 MOL     -0.128270
     89 C31        -6.1300   -6.6490   -0.3710 ca        1 MOL     -0.277076
     90 C32        -7.2780   -4.5800   -1.0300 ca        1 MOL     -0.277076
     91 C33        -7.3230   -5.9600   -0.6980 ca        1 MOL      0.388486
     92 O14        -8.4680   -6.5950   -0.6390 oh        1 MOL     -0.509163
     93 H37        -4.0440   -1.3610    0.8070 hn        1 MOL      0.385279
     94 H38        -3.2830   -3.9810    1.6810 h1        1 MOL      0.002415
     95 H39        -2.6420   -4.7460   -0.4740 hc        1 MOL     -0.070084
     96 H40        -3.5270   -3.2090   -1.1720 hc        1 MOL     -0.070084
     97 H41        -4.0070   -6.5270   -0.0540 ha        1 MOL      0.130423
     98 H42        -5.9160   -2.9370   -1.4300 ha        1 MOL      0.130423
     99 H43        -6.1010   -7.6740   -0.0440 ha        1 MOL      0.151657
    100 H44        -8.1490   -3.9880   -1.2990 ha        1 MOL      0.151657
    101 H45        -9.1720   -5.9440   -0.7190 ho        1 MOL      0.391896
    102 N10        -0.6640   -3.2950    1.4810 n         1 MOL     -0.499896
    103 C34         0.7310   -2.8650    1.6330 c3        1 MOL      0.079423
    104 C35         1.5880   -3.7330    0.7220 c         1 MOL      0.417144
    105 O15         1.7090   -4.9840    0.9490 o         1 MOL     -0.540941
    106 C36         1.2500   -2.8360    3.0910 c3        1 MOL      0.207355
    107 C37         0.3030   -2.2390    4.1540 c3        1 MOL      0.311755
    108 C38         2.6310   -2.1370    3.0950 c3        1 MOL     -0.362135
    109 C39         0.6890   -2.6820    5.5230 c3        1 MOL     -0.274892
    110 H46        -0.9330   -4.1010    2.0220 hn        1 MOL      0.275949
    111 H47         0.8700   -1.8480    1.2760 h1        1 MOL      0.067096
    112 H48         1.5080   -3.8700    3.3350 hc        1 MOL     -0.019473
    113 H49        -0.6810   -2.6410    3.9160 hc        1 MOL     -0.083921
    114 H50         0.3000   -1.1480    4.0870 hc        1 MOL     -0.083921
    115 H51         3.3000   -2.6160    2.3740 hc        1 MOL      0.067727
    116 H52         2.6110   -1.0760    2.8380 hc        1 MOL      0.067727
    117 H53         3.1350   -2.0900    4.0640 hc        1 MOL      0.067727
    118 H54         1.7240   -2.4550    5.7370 hc        1 MOL      0.055025
    119 H55         0.0150   -2.1630    6.2080 hc        1 MOL      0.055025
    120 H56         0.5890   -3.7630    5.6200 hc        1 MOL      0.055025
    121 N11         2.1850   -3.0860   -0.2970 n         1 MOL     -0.043701
    122 C40         3.1150   -3.6930   -1.2060 c3        1 MOL     -0.024969
    123 C41         4.5310   -3.7330   -0.7000 c         1 MOL      0.344447
    124 O16         4.9640   -3.0310    0.2240 o         1 MOL     -0.305847
    125 C42         3.0690   -3.0270   -2.5000 c3        1 MOL      0.021310
    126 O17         3.6260   -1.7600   -2.3500 oh        1 MOL     -0.499500
    127 H57         2.0160   -2.1070   -0.4480 hn        1 MOL     -0.035457
    128 H58         2.7710   -4.6970   -1.4370 h1        1 MOL      0.044221
    129 H59         2.0270   -3.0110   -2.8240 h1        1 MOL      0.067048
    130 H60         3.5630   -3.5720   -3.3030 h1        1 MOL      0.067048
    131 H61         2.9840   -1.2280   -1.8820 ho        1 MOL      0.292328
    132 N12         5.3370   -4.5700   -1.3520 n         1 MOL     -0.344930
    133 C43         6.7230   -4.6580   -1.0430 c3        1 MOL      0.052986
    134 C44         7.3680   -3.2370   -1.2720 c         1 MOL      0.418814
    135 O18         8.3330   -2.8590   -0.6540 o         1 MOL     -0.494612
    136 C45         7.4200   -5.8550   -1.7990 c3        1 MOL     -0.276943
    137 H62         4.9810   -5.1410   -2.1080 hn        1 MOL      0.267292
    138 H63         6.8410   -4.8690    0.0150 h1        1 MOL      0.106641
    139 H64         7.3630   -5.6400   -2.8650 hc        1 MOL      0.095789
    140 H65         8.3900   -6.2050   -1.4550 hc        1 MOL      0.095789
    141 H66         6.8030   -6.7120   -1.5360 hc        1 MOL      0.095789
    142 N13         6.9460   -2.4510   -2.2740 n         1 MOL     -0.291185
    143 C46         7.3450   -1.1020   -2.4610 c3        1 MOL      0.036733
    144 C47         6.9810   -0.1970   -1.2690 c         1 MOL      0.394559
    145 O19         7.7820    0.6240   -0.8710 o         1 MOL     -0.517543
    146 C48         6.6470   -0.5240   -3.7720 c3        1 MOL     -0.246579
    147 H67         6.2260   -2.8520   -2.8500 hn        1 MOL      0.240962
    148 H68         8.4200   -1.1180   -2.6070 h1        1 MOL      0.099132
    149 H69         7.1070    0.4240   -4.0530 hc        1 MOL      0.066421
    150 H70         6.7290   -1.2560   -4.5860 hc        1 MOL      0.066421
    151 H71         5.5980   -0.3030   -3.5440 hc        1 MOL      0.066421
    152 N14         5.7640   -0.3100   -0.6560 n         1 MOL     -0.060406
    153 C49         5.3540    0.4760    0.5130 c3        1 MOL     -0.221038
    154 C50         6.0870    0.0710    1.8280 c         1 MOL      0.462446
    155 O20         6.2830    0.8780    2.7320 o         1 MOL     -0.536642
    156 C51         3.8710    0.2600    0.8210 c3        1 MOL      0.148141
    157 C52         3.0750    0.9520   -0.2500 c3        1 MOL     -0.051812
    158 C53         1.7420    0.3740   -0.3350 c         1 MOL      0.395989
    159 O21         0.8590    1.0580    0.1690 o         1 MOL     -0.496850
    160 O22         1.4410   -0.5730   -1.0640 o         1 MOL     -0.496850
    161 H72         5.1550   -1.0350   -1.0080 hn        1 MOL      0.118028
    162 H73         5.3750    1.5570    0.3420 h1        1 MOL      0.093711
    163 H74         3.6770    0.7870    1.7540 hc        1 MOL      0.045635
    164 H75         3.6900   -0.8170    0.8120 hc        1 MOL      0.045635
    165 H76         3.6000    0.9490   -1.2060 hc        1 MOL     -0.016748
    166 H77         3.0190    1.9890    0.0860 hc        1 MOL     -0.016748
    167 N15         6.5550   -1.1900    1.8900 n         1 MOL     -0.044280
    168 C54         7.4920   -1.6990    2.9470 c3        1 MOL     -0.399299
    169 H78         8.4530   -1.1930    2.8540 h1        1 MOL      0.146229
    170 H79         7.0720   -1.5000    3.9330 h1        1 MOL      0.146229
    171 H80         7.6340   -2.7720    2.8210 h1        1 MOL      0.146229
    172 H81         6.1850   -1.8220    1.1860 hn        1 MOL      0.059065
    173 Ca1        -1.0880    0.3550   -1.5570 Ca        1 MOL      1.758086
    174 O23        -1.4150   -0.0060   -4.3420 oh        1 MOL     -0.832839
    175 H82        -1.1130   -0.6520   -4.9770 ho        1 MOL      0.401595
    176 H83        -1.6310    0.7630   -4.8720 ho        1 MOL      0.401595
    177 O24        -0.9510   -2.1270   -2.7360 oh        1 MOL     -0.832839
    178 H84        -1.0780   -3.0420   -2.4920 ho        1 MOL      0.401595
    179 H85        -0.9090   -2.1370   -3.6900 ho        1 MOL      0.401595
    180 O25         0.8560    1.5540   -3.0350 oh        1 MOL     -0.832839
    181 H86         1.2860    1.0160   -3.7040 ho        1 MOL      0.401595
    182 H87         1.0290    2.4540   -3.2950 ho        1 MOL      0.401595
@<TRIPOS>BOND
     1    1    2 1   
     2    1    4 1   
     3    1    5 1   
     4    1    6 1   
     5    2    3 2   
     6    2    7 1   
     7    7    8 1   
     8    7   15 1   
     9    8    9 1   
    10    8   11 1   
    11    8   16 1   
    12    9   10 2   
    13    9   19 1   
    14   11   12 1   
    15   11   17 1   
    16   11   18 1   
    17   12   13 1   
    18   12   14 1   
    19   19   20 1   
    20   19   28 1   
    21   20   21 1   
    22   20   23 1   
    23   20   29 1   
    24   21   22 2   
    25   21   41 1   
    26   23   24 1   
    27   23   30 1   
    28   23   31 1   
    29   24   25 1   
    30   24   32 1   
    31   24   33 1   
    32   25   26 1   
    33   25   34 1   
    34   25   35 1   
    35   26   27 1   
    36   26   36 1   
    37   26   37 1   
    38   27   38 1   
    39   27   39 1   
    40   27   40 1   
    41   41   42 1   
    42   41   49 1   
    43   42   43 1   
    44   42   45 1   
    45   42   50 1   
    46   43   44 2   
    47   43   53 1   
    48   45   46 1   
    49   45   51 1   
    50   45   52 1   
    51   46   47 1   
    52   46   48 1   
    53   53   54 1   
    54   53   57 1   
    55   54   55 1   
    56   54   58 1   
    57   54   59 1   
    58   55   56 2   
    59   55   60 1   
    60   60   61 1   
    61   60   68 1   
    62   61   62 1   
    63   61   64 1   
    64   61   69 1   
    65   62   63 2   
    66   62   74 1   
    67   64   65 1   
    68   64   70 1   
    69   64   71 1   
    70   65   66 1   
    71   65   67 2   
    72   66   72 1   
    73   66   73 1   
    74   74   75 1   
    75   74   78 1   
    76   75   76 1   
    77   75   79 1   
    78   75   80 1   
    79   76   77 2   
    80   76   81 1   
    81   81   82 1   
    82   81   93 1   
    83   82   83 1   
    84   82   85 1   
    85   82   94 1   
    86   83   84 2   
    87   83  102 1   
    88   85   86 1   
    89   85   95 1   
    90   85   96 1   
    91   86   87 ar  
    92   86   88 ar  
    93   87   89 ar  
    94   87   97 1   
    95   88   90 ar  
    96   88   98 1   
    97   89   91 ar  
    98   89   99 1   
    99   90   91 ar  
   100   90  100 1   
   101   91   92 1   
   102   92  101 1   
   103  102  103 1   
   104  102  110 1   
   105  103  104 1   
   106  103  106 1   
   107  103  111 1   
   108  104  105 2   
   109  104  121 1   
   110  106  107 1   
   111  106  108 1   
   112  106  112 1   
   113  107  109 1   
   114  107  113 1   
   115  107  114 1   
   116  108  115 1   
   117  108  116 1   
   118  108  117 1   
   119  109  118 1   
   120  109  119 1   
   121  109  120 1   
   122  121  122 1   
   123  121  127 1   
   124  122  123 1   
   125  122  125 1   
   126  122  128 1   
   127  123  124 2   
   128  123  132 1   
   129  125  126 1   
   130  125  129 1   
   131  125  130 1   
   132  126  131 1   
   133  132  133 1   
   134  132  137 1   
   135  133  134 1   
   136  133  136 1   
   137  133  138 1   
   138  134  135 2   
   139  134  142 1   
   140  136  139 1   
   141  136  140 1   
   142  136  141 1   
   143  142  143 1   
   144  142  147 1   
   145  143  144 1   
   146  143  146 1   
   147  143  148 1   
   148  144  145 2   
   149  144  152 1   
   150  146  149 1   
   151  146  150 1   
   152  146  151 1   
   153  152  153 1   
   154  152  161 1   
   155  153  154 1   
   156  153  156 1   
   157  153  162 1   
   158  154  155 2   
   159  154  167 1   
   160  156  157 1   
   161  156  163 1   
   162  156  164 1   
   163  157  158 1   
   164  157  165 1   
   165  157  166 1   
   166  158  159 1   
   167  158  160 1   
   168  167  168 1   
   169  167  172 1   
   170  168  169 1   
   171  168  170 1   
   172  168  171 1   
   173  174  175 1   
   174  174  176 1   
   175  177  178 1   
   176  177  179 1   
   177  180  181 1   
   178  180  182 1   
@<TRIPOS>SUBSTRUCTURE
     1 MOL         1 TEMP              0 ****  ****    0 ROOT
