@<TRIPOS>MOLECULE
MOL
  178   175     1     0     0
SMALL
resp


@<TRIPOS>ATOM
      1 C1          0.8640   -3.2350    6.1800 c3        1 MOL     -0.375848
      2 C2          1.0660   -2.9050    4.6360 c         1 MOL      0.743466
      3 O1          0.1210   -2.9050    3.8360 o         1 MOL     -0.587686
      4 H1          0.7280   -4.3090    6.3060 hc        1 MOL      0.089328
      5 H2          1.7410   -2.9110    6.7400 hc        1 MOL      0.089328
      6 H3         -0.0180   -2.7130    6.5510 hc        1 MOL      0.089328
      7 N1          2.2780   -2.4910    4.1960 n         1 MOL     -0.666285
      8 C3          2.6340   -2.2330    2.7810 c3        1 MOL      0.144983
      9 C4          3.1050   -3.5180    2.0050 c         1 MOL      0.662128
     10 O2          3.8780   -4.2920    2.4800 o         1 MOL     -0.620332
     11 C5          3.6560   -1.1420    2.9280 c3        1 MOL      0.064160
     12 C6          4.1880   -0.6440    1.5730 c         1 MOL      0.772111
     13 O3          5.0590    0.2630    1.6680 o         1 MOL     -0.758761
     14 O4          3.7550   -1.0820    0.4490 o         1 MOL     -0.758761
     15 H4          3.0560   -2.3540    4.8160 hn        1 MOL      0.324987
     16 H5          1.7630   -1.8510    2.2660 h1        1 MOL     -0.003960
     17 H6          4.4590   -1.5650    3.5390 hc        1 MOL     -0.038748
     18 H7          3.2590   -0.2940    3.4760 hc        1 MOL     -0.038748
     19 N2          2.5750   -3.7390    0.8040 n         1 MOL     -0.457659
     20 C7          2.7470   -4.9640    0.0350 c3        1 MOL      0.197163
     21 C8          3.8850   -4.7780   -0.9690 c         1 MOL      0.414757
     22 O5          4.3710   -5.8510   -1.3940 o         1 MOL     -0.595742
     23 C9          1.4090   -5.1340   -0.6770 c3        1 MOL     -0.304090
     24 H8          1.8900   -3.1120    0.3930 hn        1 MOL      0.218159
     25 H9          3.0000   -5.8340    0.6430 h1        1 MOL      0.048564
     26 H10         1.5090   -6.0920   -1.1890 hc        1 MOL      0.072979
     27 H11         0.6190   -5.4130    0.0170 hc        1 MOL      0.072979
     28 H12         1.0950   -4.2560   -1.2590 hc        1 MOL      0.072979
     29 N3          4.3400   -3.6010   -1.2960 n         1 MOL     -0.330092
     30 C10         5.4170   -3.5260   -2.2810 c3        1 MOL      0.201859
     31 C11         6.4720   -2.5570   -1.6960 c         1 MOL      0.301782
     32 O6          7.4280   -2.2200   -2.4480 o         1 MOL     -0.532159
     33 C12         4.9780   -3.0680   -3.6560 c3        1 MOL     -0.170764
     34 C13         4.3110   -1.7460   -3.7470 c         1 MOL      0.729799
     35 O7          4.2970   -1.1810   -4.8860 o         1 MOL     -0.704387
     36 O8          3.8970   -1.1180   -2.7110 o         1 MOL     -0.704387
     37 H13         3.8030   -2.7700   -1.0890 hn        1 MOL      0.319194
     38 H14         5.9110   -4.4920   -2.3920 h1        1 MOL      0.062143
     39 H15         4.2730   -3.8360   -3.9750 hc        1 MOL      0.019842
     40 H16         5.8560   -3.0480   -4.3050 hc        1 MOL      0.019842
     41 N4          6.4330   -2.1670   -0.4390 n         1 MOL     -0.135813
     42 C14         7.3990   -1.4600    0.3650 c3        1 MOL     -0.267354
     43 C15         7.7160   -0.0210   -0.0670 c         1 MOL      0.560956
     44 O9          8.8000    0.4980    0.2350 o         1 MOL     -0.611469
     45 H17         5.6280   -2.4640    0.0960 hn        1 MOL      0.156095
     46 H18         8.2800   -2.0630    0.1420 h1        1 MOL      0.121155
     47 H19         7.2050   -1.5420    1.4290 h1        1 MOL      0.121155
     48 N5          6.8950    0.6250   -0.8480 n         1 MOL     -0.251418
     49 C16         7.0720    1.9930   -1.3890 c3        1 MOL     -0.047731
     50 C17         6.9010    3.0780   -0.2740 c         1 MOL      0.460195
     51 O10         7.1700    4.2320   -0.4700 o         1 MOL     -0.577528
     52 C18         6.1270    2.2490   -2.6220 c3        1 MOL     -0.384860
     53 C19         4.6820    2.5290   -2.0940 c         1 MOL      0.604374
     54 N6          4.2680    3.7340   -2.1560 n         1 MOL     -0.701126
     55 O11         4.0200    1.7240   -1.5610 o         1 MOL     -0.593146
     56 H20         6.0400    0.1310   -1.0670 hn        1 MOL      0.266682
     57 H21         8.1040    2.1150   -1.7050 h1        1 MOL      0.130820
     58 H22         6.0820    1.3480   -3.2300 hc        1 MOL      0.151310
     59 H23         6.5220    3.0650   -3.2290 hc        1 MOL      0.151310
     60 H24         4.9780    4.4050   -2.4090 hn        1 MOL      0.334624
     61 H25         3.3710    3.9890   -1.7790 hn        1 MOL      0.334624
     62 N7          6.4600    2.6930    0.8790 n         1 MOL     -0.162678
     63 C20         6.1610    3.5480    2.0130 c3        1 MOL     -0.186707
     64 C21         4.6900    3.9470    2.2670 c         1 MOL      0.533017
     65 O12         4.5230    4.7580    3.2080 o         1 MOL     -0.577210
     66 H26         6.1500    1.7340    0.9230 hn        1 MOL      0.251627
     67 H27         6.7140    4.4840    1.9060 h1        1 MOL      0.106553
     68 H28         6.5400    3.0650    2.9130 h1        1 MOL      0.106553
     69 N8          3.7180    3.4810    1.4930 n         1 MOL     -0.208555
     70 C22         2.3300    3.8350    1.6480 c3        1 MOL     -0.099209
     71 C23         1.4650    2.5670    1.5820 c         1 MOL      0.679373
     72 O13         1.8830    1.5560    1.0090 o         1 MOL     -0.594535
     73 C24         1.8110    4.9750    0.7410 c3        1 MOL      0.333409
     74 C25         2.4770    6.3400    0.9530 c3        1 MOL     -0.399287
     75 O14         2.0310    4.7490   -0.6350 oh        1 MOL     -0.672938
     76 H29         3.9340    2.7760    0.8040 hn        1 MOL      0.221423
     77 H30         2.2000    4.2260    2.6550 h1        1 MOL      0.080890
     78 H31         0.7570    5.2180    0.8570 h1        1 MOL      0.056637
     79 H32         1.9560    5.5740   -1.1080 ho        1 MOL      0.425058
     80 H33         1.8490    7.1210    0.5400 hc        1 MOL      0.107292
     81 H34         2.5600    6.5380    2.0200 hc        1 MOL      0.107292
     82 H35         3.4810    6.4150    0.5280 hc        1 MOL      0.107292
     83 N9          0.2430    2.6750    2.1490 n         1 MOL     -0.545626
     84 C26        -0.9310    1.9120    1.7800 c3        1 MOL     -0.122031
     85 C27        -1.8920    2.7220    0.8500 c         1 MOL      0.469554
     86 O15        -2.3620    3.8600    1.1720 o         1 MOL     -0.582840
     87 C28        -1.5270    1.2830    3.0520 c3        1 MOL      0.570212
     88 C29        -2.3310    2.2270    3.8820 c3        1 MOL     -0.049341
     89 C30        -0.4620    0.4300    3.7990 c3        1 MOL     -0.506612
     90 C31        -2.5390    1.9270    5.3530 c3        1 MOL     -0.254580
     91 H36         0.0190    3.4300    2.7940 hn        1 MOL      0.280173
     92 H37        -0.5090    1.1070    1.1730 h1        1 MOL     -0.009728
     93 H38        -2.2480    0.5530    2.6810 hc        1 MOL     -0.194264
     94 H39        -3.2490    2.4130    3.3180 hc        1 MOL      0.017634
     95 H40        -1.7600    3.1530    3.9180 hc        1 MOL      0.017634
     96 H41        -0.9830   -0.2340    4.4820 hc        1 MOL      0.134003
     97 H42        -0.0700   -0.2940    3.0780 hc        1 MOL      0.134003
     98 H43         0.3550    0.9710    4.2890 hc        1 MOL      0.134003
     99 H44        -3.1760    1.0500    5.4680 hc        1 MOL      0.054048
    100 H45        -1.5740    1.9170    5.8480 hc        1 MOL      0.054048
    101 H46        -3.2100    2.6810    5.7870 hc        1 MOL      0.054048
    102 N10        -2.1270    2.0860   -0.3060 n         1 MOL     -0.304837
    103 C32        -3.2840    2.3720   -1.2010 c3        1 MOL     -0.049653
    104 C33        -4.5220    1.6430   -0.5190 c         1 MOL      0.543385
    105 O16        -4.4500    0.8110    0.3890 o         1 MOL     -0.491648
    106 C34        -2.8710    1.8840   -2.5820 c3        1 MOL     -0.023404
    107 C35        -3.8200    2.3220   -3.7380 c         1 MOL      0.619826
    108 O17        -3.4080    1.8860   -4.8150 o         1 MOL     -0.686161
    109 O18        -4.8920    2.9900   -3.5450 o         1 MOL     -0.686161
    110 H47        -1.6450    1.2140   -0.4680 hn        1 MOL      0.365464
    111 H48        -3.4750    3.4360   -1.3140 h1        1 MOL      0.082812
    112 H49        -2.9780    0.7970   -2.4810 hc        1 MOL      0.002065
    113 H50        -1.8310    2.1380   -2.7940 hc        1 MOL      0.002065
    114 N11        -5.7310    1.8400   -1.0330 n         1 MOL     -0.555301
    115 C36        -6.9620    1.3110   -0.5030 c3        1 MOL      0.426997
    116 C37        -7.0460   -0.2360   -0.4830 c         1 MOL      0.260436
    117 O19        -7.5040   -0.7600    0.5460 o         1 MOL     -0.502423
    118 C38        -8.1030    1.9210   -1.3430 c3        1 MOL     -0.180361
    119 C39        -9.5240    1.5150   -0.9090 ca        1 MOL     -0.023159
    120 C40        -9.8990    1.6910    0.4380 ca        1 MOL     -0.065057
    121 C41       -10.3800    0.8190   -1.7150 ca        1 MOL     -0.065057
    122 C42       -11.1790    1.3000    0.8970 ca        1 MOL     -0.176384
    123 C43       -11.6160    0.4130   -1.2930 ca        1 MOL     -0.176384
    124 C44       -12.0670    0.6270    0.0420 ca        1 MOL     -0.062872
    125 H51        -5.8050    2.5200   -1.7750 hn        1 MOL      0.230463
    126 H52        -7.1100    1.7250    0.4930 h1        1 MOL      0.019094
    127 H53        -7.9370    1.6640   -2.3880 hc        1 MOL      0.071274
    128 H54        -7.9800    3.0050   -1.2500 hc        1 MOL      0.071274
    129 H55        -9.2060    2.1190    1.1570 ha        1 MOL      0.089408
    130 H56       -10.1760    0.6310   -2.7610 ha        1 MOL      0.089408
    131 H57       -11.4270    1.3690    1.9480 ha        1 MOL      0.113422
    132 H58       -12.2970   -0.0520   -1.9850 ha        1 MOL      0.113422
    133 H59       -13.0620    0.3830    0.3730 ha        1 MOL      0.089942
    134 N12        -6.4870   -0.9340   -1.4220 n         1 MOL     -0.014215
    135 C45        -6.5080   -2.4130   -1.4380 c3        1 MOL      0.187177
    136 C46        -5.6760   -3.0650   -0.3390 c         1 MOL      0.137870
    137 O20        -5.9530   -4.0900    0.2500 o         1 MOL     -0.474375
    138 C47        -6.0470   -2.8670   -2.8190 c3        1 MOL     -0.149475
    139 C48        -6.1940   -1.6200   -3.7610 c3        1 MOL     -0.091641
    140 C49        -6.0500   -0.4820   -2.7910 c3        1 MOL     -0.147965
    141 H60        -7.5670   -2.6300   -1.2610 h1        1 MOL      0.043267
    142 H61        -4.9850   -3.1120   -2.8380 hc        1 MOL      0.056668
    143 H62        -6.7640   -3.6260   -3.1420 hc        1 MOL      0.056668
    144 H63        -5.4260   -1.6080   -4.5400 hc        1 MOL      0.062746
    145 H64        -7.1770   -1.7880   -4.1960 hc        1 MOL      0.062746
    146 H65        -4.9870   -0.2490   -2.6690 h1        1 MOL      0.110750
    147 H66        -6.6610    0.3410   -3.1640 h1        1 MOL      0.110750
    148 N13        -4.5810   -2.3710    0.0930 n         1 MOL      0.033041
    149 C50        -3.7270   -2.7480    1.2000 c3        1 MOL     -0.094767
    150 C51        -4.2790   -2.3400    2.5510 c         1 MOL      0.441042
    151 O21        -3.9630   -2.9640    3.5770 o         1 MOL     -0.582720
    152 C52        -2.4290   -2.0230    1.0170 c3        1 MOL      0.024028
    153 C53        -1.6500   -2.5700   -0.1930 c3        1 MOL     -0.488502
    154 C54        -0.4810   -1.7170   -0.5220 c         1 MOL      1.001095
    155 O22         0.7000   -2.0080   -0.2120 o         1 MOL     -0.828041
    156 O23        -0.6290   -0.6480   -1.0650 o         1 MOL     -0.828041
    157 H67        -4.3610   -1.4940   -0.3510 hn        1 MOL      0.123722
    158 H68        -3.5520   -3.8250    1.2740 h1        1 MOL      0.101974
    159 H69        -1.7920   -2.0550    1.8920 hc        1 MOL      0.115033
    160 H70        -2.6530   -0.9590    0.9310 hc        1 MOL      0.115033
    161 H71        -2.2870   -2.7080   -1.0630 hc        1 MOL      0.111170
    162 H72        -1.2690   -3.5390    0.1320 hc        1 MOL      0.111170
    163 N14        -5.1780   -1.3790    2.6120 n         1 MOL      0.052019
    164 C55        -6.0050   -0.9780    3.7360 c3        1 MOL     -0.377804
    165 H73        -6.1030   -1.8120    4.4310 h1        1 MOL      0.125494
    166 H74        -5.5400   -0.1340    4.2460 h1        1 MOL      0.125494
    167 H75        -6.9920   -0.6870    3.3770 h1        1 MOL      0.125494
    168 H76        -5.4310   -0.8950    1.7620 hn        1 MOL      0.037995
    169 Ca1         2.0150   -0.0630   -1.3310 Ca        1 MOL      1.775525
    170 O24         0.9160    2.5050   -1.7170 oh        1 MOL     -0.858506
    171 H77         0.7530    2.8370   -2.5980 ho        1 MOL      0.414542
    172 H78         1.3750    3.2080   -1.2710 ho        1 MOL      0.414542
    173 O25         1.5000    0.6300   -3.8750 oh        1 MOL     -0.858506
    174 H79         1.0340    1.3900   -4.2290 ho        1 MOL      0.414542
    175 H80         1.5600    0.0170   -4.5980 ho        1 MOL      0.414542
    176 O26         1.2210   -2.3820   -3.0150 oh        1 MOL     -0.858506
    177 H81         1.7750   -2.7600   -3.6850 ho        1 MOL      0.414542
    178 H82         0.3650   -2.7930   -3.1510 ho        1 MOL      0.414542
@<TRIPOS>BOND
     1    1    2 1   
     2    1    4 1   
     3    1    5 1   
     4    1    6 1   
     5    2    3 2   
     6    2    7 1   
     7    7    8 1   
     8    7   15 1   
     9    8    9 1   
    10    8   11 1   
    11    8   16 1   
    12    9   10 2   
    13    9   19 1   
    14   11   12 1   
    15   11   17 1   
    16   11   18 1   
    17   12   13 1   
    18   12   14 1   
    19   19   20 1   
    20   19   24 1   
    21   20   21 1   
    22   20   23 1   
    23   20   25 1   
    24   21   22 2   
    25   21   29 1   
    26   23   26 1   
    27   23   27 1   
    28   23   28 1   
    29   29   30 1   
    30   29   37 1   
    31   30   31 1   
    32   30   33 1   
    33   30   38 1   
    34   31   32 2   
    35   31   41 1   
    36   33   34 1   
    37   33   39 1   
    38   33   40 1   
    39   34   35 1   
    40   34   36 1   
    41   41   42 1   
    42   41   45 1   
    43   42   43 1   
    44   42   46 1   
    45   42   47 1   
    46   43   44 2   
    47   43   48 1   
    48   48   49 1   
    49   48   56 1   
    50   49   50 1   
    51   49   52 1   
    52   49   57 1   
    53   50   51 2   
    54   50   62 1   
    55   52   53 1   
    56   52   58 1   
    57   52   59 1   
    58   53   54 1   
    59   53   55 2   
    60   54   60 1   
    61   54   61 1   
    62   62   63 1   
    63   62   66 1   
    64   63   64 1   
    65   63   67 1   
    66   63   68 1   
    67   64   65 2   
    68   64   69 1   
    69   69   70 1   
    70   69   76 1   
    71   70   71 1   
    72   70   73 1   
    73   70   77 1   
    74   71   72 2   
    75   71   83 1   
    76   73   74 1   
    77   73   75 1   
    78   73   78 1   
    79   74   80 1   
    80   74   81 1   
    81   74   82 1   
    82   75   79 1   
    83   83   84 1   
    84   83   91 1   
    85   84   85 1   
    86   84   87 1   
    87   84   92 1   
    88   85   86 2   
    89   85  102 1   
    90   87   88 1   
    91   87   89 1   
    92   87   93 1   
    93   88   90 1   
    94   88   94 1   
    95   88   95 1   
    96   89   96 1   
    97   89   97 1   
    98   89   98 1   
    99   90   99 1   
   100   90  100 1   
   101   90  101 1   
   102  102  103 1   
   103  102  110 1   
   104  103  104 1   
   105  103  106 1   
   106  103  111 1   
   107  104  105 2   
   108  104  114 1   
   109  106  107 1   
   110  106  112 1   
   111  106  113 1   
   112  107  108 1   
   113  107  109 1   
   114  114  115 1   
   115  114  125 1   
   116  115  116 1   
   117  115  118 1   
   118  115  126 1   
   119  116  117 2   
   120  116  134 1   
   121  118  119 1   
   122  118  127 1   
   123  118  128 1   
   124  119  120 ar  
   125  119  121 ar  
   126  120  122 ar  
   127  120  129 1   
   128  121  123 ar  
   129  121  130 1   
   130  122  124 ar  
   131  122  131 1   
   132  123  124 ar  
   133  123  132 1   
   134  124  133 1   
   135  134  135 1   
   136  134  140 1   
   137  135  136 1   
   138  135  138 1   
   139  135  141 1   
   140  136  137 2   
   141  136  148 1   
   142  138  139 1   
   143  138  142 1   
   144  138  143 1   
   145  139  140 1   
   146  139  144 1   
   147  139  145 1   
   148  140  146 1   
   149  140  147 1   
   150  148  149 1   
   151  148  157 1   
   152  149  150 1   
   153  149  152 1   
   154  149  158 1   
   155  150  151 2   
   156  150  163 1   
   157  152  153 1   
   158  152  159 1   
   159  152  160 1   
   160  153  154 1   
   161  153  161 1   
   162  153  162 1   
   163  154  155 1   
   164  154  156 1   
   165  163  164 1   
   166  163  168 1   
   167  164  165 1   
   168  164  166 1   
   169  164  167 1   
   170  170  171 1   
   171  170  172 1   
   172  173  174 1   
   173  173  175 1   
   174  176  177 1   
   175  176  178 1   
@<TRIPOS>SUBSTRUCTURE
     1 MOL         1 TEMP              0 ****  ****    0 ROOT
