@<TRIPOS>MOLECULE
MOL
  186   183     1     0     0
SMALL
resp


@<TRIPOS>ATOM
      1 C1          0.2590   -2.4610    6.0310 c3        1 MOL     -0.340010
      2 C2          0.6810   -2.3490    4.5750 c         1 MOL      0.806470
      3 O1         -0.1110   -2.6530    3.7410 o         1 MOL     -0.625405
      4 H1          0.9350   -1.8720    6.6510 hc        1 MOL      0.068211
      5 H2         -0.7570   -2.0860    6.1460 hc        1 MOL      0.068211
      6 H3          0.2990   -3.5050    6.3430 hc        1 MOL      0.068211
      7 N1          1.8570   -1.9070    4.3320 n         1 MOL     -0.678456
      8 C3          2.4170   -1.6320    2.9740 c3        1 MOL      0.104382
      9 C4          2.8860   -2.9550    2.4430 c         1 MOL      0.678625
     10 O2          3.8110   -3.5330    2.9560 o         1 MOL     -0.597592
     11 C5          3.4720   -0.5260    3.0860 c3        1 MOL     -0.148723
     12 C6          4.2510   -0.3270    1.7490 c         1 MOL      0.567116
     13 O3          5.4540    0.0530    1.8360 o         1 MOL     -0.647054
     14 O4          3.6010   -0.6270    0.7290 o         1 MOL     -0.647054
     15 H4          2.4530   -1.6490    5.1060 hn        1 MOL      0.339735
     16 H5          1.6590   -1.2830    2.2770 h1        1 MOL      0.053069
     17 H6          4.0980   -0.7510    3.9440 hc        1 MOL      0.032013
     18 H7          3.0520    0.4550    3.3090 hc        1 MOL      0.032013
     19 N2          2.2500   -3.5030    1.4100 n         1 MOL     -0.375953
     20 C7          2.4940   -4.8990    1.0000 c3        1 MOL     -0.197939
     21 C8          3.7970   -4.9740    0.1100 c         1 MOL      0.549413
     22 O5          4.6620   -5.8060    0.2980 o         1 MOL     -0.598745
     23 C9          1.2450   -5.6100    0.3330 c3        1 MOL      0.274783
     24 C10         0.0120   -5.6160    1.2950 c3        1 MOL     -0.022398
     25 C11         1.5460   -7.0260   -0.1560 c3        1 MOL     -0.363440
     26 C12        -1.3060   -6.0350    0.6290 c3        1 MOL     -0.120609
     27 H8          1.5390   -2.9420    0.9640 hn        1 MOL      0.282196
     28 H9          2.7270   -5.4020    1.9320 h1        1 MOL      0.083974
     29 H10         0.9970   -4.9670   -0.5050 hc        1 MOL      0.004526
     30 H11        -0.0910   -4.5750    1.5960 hc        1 MOL      0.013509
     31 H12         0.2040   -6.3610    2.0650 hc        1 MOL      0.013509
     32 H13         1.8290   -7.6650    0.6810 hc        1 MOL      0.075693
     33 H14         0.6600   -7.4460   -0.6340 hc        1 MOL      0.075693
     34 H15         2.3430   -6.9740   -0.9030 hc        1 MOL      0.075693
     35 H16        -1.2690   -5.6580   -0.3920 hc        1 MOL      0.026224
     36 H17        -1.4290   -7.1150    0.6460 hc        1 MOL      0.026224
     37 H18        -2.1750   -5.6440    1.1660 hc        1 MOL      0.026224
     38 N3          3.8840   -4.0990   -0.8670 n         1 MOL     -0.313012
     39 C13         4.8770   -4.1330   -1.9690 c3        1 MOL      0.115043
     40 C14         6.1830   -3.2880   -1.6450 c         1 MOL      0.373919
     41 O6          7.1500   -3.1970   -2.3890 o         1 MOL     -0.538250
     42 C15         4.2090   -3.6830   -3.2570 c3        1 MOL     -0.227293
     43 C16         3.3610   -2.3910   -3.1800 c         1 MOL      0.763863
     44 O7          3.3940   -1.6370   -2.1940 o         1 MOL     -0.685856
     45 O8          2.6980   -2.0290   -4.1810 o         1 MOL     -0.685856
     46 H19         3.2910   -3.2840   -0.8680 hn        1 MOL      0.183237
     47 H20         5.2010   -5.1630   -2.1110 h1        1 MOL      0.077167
     48 H21         3.5520   -4.5270   -3.4840 hc        1 MOL      0.044782
     49 H22         5.0160   -3.6720   -3.9940 hc        1 MOL      0.044782
     50 N4          6.3090   -2.7320   -0.4490 n         1 MOL     -0.222571
     51 C17         7.5450   -2.1950    0.0610 c3        1 MOL     -0.133617
     52 C18         7.8270   -0.8360   -0.5620 c         1 MOL      0.511651
     53 O9          9.0110   -0.3880   -0.5970 o         1 MOL     -0.634766
     54 H23         5.5310   -2.7810    0.1950 hn        1 MOL      0.265092
     55 H24         8.3810   -2.8780   -0.0550 h1        1 MOL      0.095463
     56 H25         7.4690   -2.0450    1.1390 h1        1 MOL      0.095463
     57 N5          6.9130   -0.0400   -1.1260 n         1 MOL     -0.137306
     58 C19         7.0670    1.2320   -1.8040 c3        1 MOL     -0.051502
     59 C20         7.1880    2.4370   -0.8100 c         1 MOL      0.428458
     60 O10         7.4050    3.5600   -1.2100 o         1 MOL     -0.552711
     61 C21         6.0510    1.4640   -2.9210 c3        1 MOL     -0.282355
     62 C22         4.7010    1.7340   -2.3900 c         1 MOL      0.862298
     63 O11         4.3910    2.0990   -1.2390 o         1 MOL     -0.785353
     64 O12         3.7860    1.4060   -3.1760 o         1 MOL     -0.785353
     65 H26         5.9720   -0.3940   -1.1400 hn        1 MOL      0.149163
     66 H27         7.9950    1.2720   -2.3710 h1        1 MOL      0.093469
     67 H28         6.0290    0.5500   -3.5120 hc        1 MOL      0.092199
     68 H29         6.4660    2.2370   -3.5770 hc        1 MOL      0.092199
     69 N6          6.8170    2.1640    0.4920 n         1 MOL     -0.199310
     70 C23         6.8560    3.0990    1.6370 c3        1 MOL     -0.183110
     71 C24         5.5020    3.7590    1.9270 c         1 MOL      0.565931
     72 O13         5.5000    4.6640    2.7520 o         1 MOL     -0.613327
     73 H30         6.5690    1.2200    0.7390 hn        1 MOL      0.212983
     74 H31         7.6160    3.8600    1.5050 h1        1 MOL      0.088092
     75 H32         7.0600    2.5340    2.5500 h1        1 MOL      0.088092
     76 N7          4.4020    3.4530    1.2160 n         1 MOL     -0.311605
     77 C25         3.0880    4.0270    1.4350 c3        1 MOL      0.135521
     78 C26         1.9700    2.9730    1.4650 c         1 MOL      0.369240
     79 O14         1.9830    1.9250    0.8280 o         1 MOL     -0.558628
     80 C27         2.8460    5.1420    0.3860 c3        1 MOL     -0.010900
     81 C28         3.7950    6.3730    0.4980 c3        1 MOL     -0.356478
     82 C29         3.3210    7.4120   -0.5900 c         1 MOL      0.695976
     83 N8          3.6870    7.2540   -1.8270 n         1 MOL     -0.817448
     84 O15         2.5560    8.3090   -0.3440 o         1 MOL     -0.589792
     85 H33         4.4810    2.7880    0.4610 hn        1 MOL      0.314313
     86 H34         3.1030    4.4950    2.4240 h1        1 MOL      0.022219
     87 H35         1.7860    5.3550    0.5370 hc        1 MOL      0.041637
     88 H36         2.9770    4.7670   -0.6270 hc        1 MOL      0.041637
     89 H37         4.8070    6.0370    0.2750 hc        1 MOL      0.115127
     90 H38         3.7810    6.8030    1.5030 hc        1 MOL      0.115127
     91 H39         4.3520    6.5380   -2.0850 hn        1 MOL      0.367156
     92 H40         3.1500    7.6950   -2.5550 hn        1 MOL      0.367156
     93 N9          0.7630    3.3230    2.0140 n         1 MOL     -0.255150
     94 C30        -0.4260    2.4850    2.0950 c3        1 MOL      0.001797
     95 C31        -1.4390    3.1700    1.1530 c         1 MOL      0.277030
     96 O16        -1.9930    4.2330    1.4290 o         1 MOL     -0.526966
     97 C32        -0.9080    2.3220    3.5160 c3        1 MOL      0.134825
     98 C33        -1.7970    1.1030    3.6100 c3        1 MOL     -0.188596
     99 C34         0.2740    2.2020    4.4520 c3        1 MOL     -0.188596
    100 H41         0.6980    4.2580    2.4030 hn        1 MOL      0.231951
    101 H42        -0.2900    1.4540    1.7790 h1        1 MOL      0.150913
    102 H43        -1.4690    3.1710    3.9180 hc        1 MOL     -0.014846
    103 H44        -1.1800    0.2030    3.5660 hc        1 MOL      0.036862
    104 H45        -2.1080    1.1410    4.6550 hc        1 MOL      0.036862
    105 H46        -2.6460    1.0800    2.9200 hc        1 MOL      0.036862
    106 H47         0.8530    3.1220    4.5500 hc        1 MOL      0.036862
    107 H48         0.0140    1.9020    5.4680 hc        1 MOL      0.036862
    108 H49         1.0950    1.5290    4.1680 hc        1 MOL      0.036862
    109 N10        -1.7110    2.4760    0.0370 n         1 MOL     -0.096240
    110 C35        -2.8670    2.6520   -0.8500 c3        1 MOL      0.014213
    111 C36        -4.1500    2.0080   -0.2290 c         1 MOL      0.354876
    112 O17        -4.0560    1.3670    0.7910 o         1 MOL     -0.256623
    113 C37        -2.4860    2.0040   -2.1940 c3        1 MOL     -0.382828
    114 C38        -3.6210    2.2040   -3.1900 c         1 MOL      0.739240
    115 N11        -3.6900    3.3220   -3.8900 n         1 MOL     -0.834654
    116 O18        -4.5500    1.4020   -3.3150 o         1 MOL     -0.522764
    117 H50        -1.0620    1.7200   -0.1520 hn        1 MOL      0.219666
    118 H51        -3.0110    3.7260   -0.9790 h1        1 MOL      0.056782
    119 H52        -2.3230    0.9350   -2.0170 hc        1 MOL      0.138238
    120 H53        -1.6090    2.5120   -2.5970 hc        1 MOL      0.138238
    121 H54        -2.9020    3.9560   -3.9380 hn        1 MOL      0.370670
    122 H55        -4.4370    3.3960   -4.5580 hn        1 MOL      0.370670
    123 N12        -5.3690    2.2530   -0.7990 n         1 MOL     -0.554033
    124 C39        -6.5740    1.8010   -0.0750 c3        1 MOL      0.295106
    125 C40        -6.7710    0.2740   -0.2560 c         1 MOL      0.607572
    126 O19        -7.1790   -0.4390    0.6660 o         1 MOL     -0.532886
    127 C41        -7.7850    2.5290   -0.5660 c3        1 MOL     -0.241741
    128 C42        -9.1130    1.9380   -0.1600 ca        1 MOL     -0.070268
    129 C43        -9.5330    2.0550    1.1870 ca        1 MOL     -0.053287
    130 C44        -9.8640    1.1920   -1.0900 ca        1 MOL     -0.053287
    131 C45       -10.7710    1.6650    1.5720 ca        1 MOL     -0.342007
    132 C46       -11.1430    0.7650   -0.6560 ca        1 MOL     -0.342007
    133 C47       -11.6380    1.0280    0.6530 ca        1 MOL      0.408695
    134 O20       -12.8940    0.8380    0.9720 oh        1 MOL     -0.476733
    135 H56        -5.3550    2.7490   -1.6790 hn        1 MOL      0.281217
    136 H57        -6.4280    2.0930    0.9640 h1        1 MOL      0.060780
    137 H58        -7.7750    2.6210   -1.6530 hc        1 MOL      0.075305
    138 H59        -7.7140    3.5250   -0.1130 hc        1 MOL      0.075305
    139 H60        -8.9540    2.5390    1.9560 ha        1 MOL      0.122839
    140 H61        -9.6620    1.0210   -2.1350 ha        1 MOL      0.122839
    141 H62       -11.0380    1.8420    2.6030 ha        1 MOL      0.151357
    142 H63       -11.7140    0.2200   -1.3840 ha        1 MOL      0.151357
    143 H64       -13.3340    0.4270    0.2260 ho        1 MOL      0.341642
    144 N13        -6.3740   -0.3810   -1.4080 n         1 MOL     -0.477080
    145 C48        -6.4160   -1.8350   -1.4640 c3        1 MOL     -0.016803
    146 C49        -5.4890   -2.5690   -0.4740 c         1 MOL      0.462013
    147 O21        -5.6010   -3.7870   -0.2810 o         1 MOL     -0.553316
    148 C50        -6.1680   -2.2460   -2.9170 c3        1 MOL      0.006023
    149 C51        -4.7010   -2.0460   -3.2990 c3        1 MOL     -0.103936
    150 C52        -4.5400   -2.1020   -4.8610 c         1 MOL      0.667885
    151 O22        -4.9040   -1.1120   -5.5330 o         1 MOL     -0.732259
    152 O23        -4.0940   -3.1580   -5.4250 o         1 MOL     -0.732259
    153 H65        -6.0990    0.1540   -2.2150 hn        1 MOL      0.292712
    154 H66        -7.4120   -2.1990   -1.1920 h1        1 MOL      0.048917
    155 H67        -6.8470   -1.6710   -3.5410 hc        1 MOL      0.015385
    156 H68        -6.4550   -3.2920   -2.9930 hc        1 MOL      0.015385
    157 H69        -4.0800   -2.7920   -2.8080 hc        1 MOL     -0.006527
    158 H70        -4.3670   -1.0420   -3.0490 hc        1 MOL     -0.006527
    159 N14        -4.6220   -1.8430    0.1410 n         1 MOL     -0.131130
    160 C53        -3.7400   -2.3040    1.2530 c3        1 MOL     -0.062071
    161 C54        -4.3010   -2.0030    2.5950 c         1 MOL      0.458396
    162 O24        -4.2840   -2.8500    3.5130 o         1 MOL     -0.562082
    163 C55        -2.3170   -1.7460    1.2100 c3        1 MOL      0.002354
    164 C56        -1.5260   -1.9420   -0.0940 c3        1 MOL     -0.095377
    165 C57        -0.2320   -1.2050   -0.1390 c         1 MOL      0.685194
    166 O25         0.7900   -1.8750   -0.3610 o         1 MOL     -0.759696
    167 O26        -0.1990    0.0390   -0.2250 o         1 MOL     -0.759696
    168 H71        -4.3520   -0.9810   -0.3150 hn        1 MOL      0.200529
    169 H72        -3.7310   -3.3810    1.0930 h1        1 MOL      0.075738
    170 H73        -1.7430   -2.0910    2.0620 hc        1 MOL      0.065412
    171 H74        -2.4720   -0.6880    1.4220 hc        1 MOL      0.065412
    172 H75        -2.1460   -1.5860   -0.9110 hc        1 MOL      0.036128
    173 H76        -1.3000   -2.9730   -0.3390 hc        1 MOL      0.036128
    174 N15        -4.9760   -0.8490    2.6980 n         1 MOL     -0.010914
    175 C58        -5.5070   -0.2590    3.9500 c3        1 MOL     -0.201403
    176 H77        -4.6860    0.1680    4.5270 h1        1 MOL      0.075398
    177 H78        -6.2250    0.5240    3.7070 h1        1 MOL      0.075398
    178 H79        -6.0000   -1.0330    4.5380 h1        1 MOL      0.075398
    179 H80        -5.1510   -0.3050    1.8680 hn        1 MOL     -0.098413
    180 Ca1         2.1700    0.2070   -1.2710 Ca        1 MOL      1.752595
    181 O27         1.6570    2.9760   -2.1910 oh        1 MOL     -0.873023
    182 H81         1.0160    3.0800   -2.8930 ho        1 MOL      0.406989
    183 H82         2.4960    3.1590   -2.6080 ho        1 MOL      0.406989
    184 O28         0.6720   -0.4840   -3.2960 oh        1 MOL     -0.873023
    185 H83        -0.1850   -0.8010   -3.5450 ho        1 MOL      0.406989
    186 H84         1.2690   -1.2040   -3.5020 ho        1 MOL      0.406989
@<TRIPOS>BOND
     1    1    2 1   
     2    1    4 1   
     3    1    5 1   
     4    1    6 1   
     5    2    3 2   
     6    2    7 1   
     7    7    8 1   
     8    7   15 1   
     9    8    9 1   
    10    8   11 1   
    11    8   16 1   
    12    9   10 2   
    13    9   19 1   
    14   11   12 1   
    15   11   17 1   
    16   11   18 1   
    17   12   13 1   
    18   12   14 1   
    19   19   20 1   
    20   19   27 1   
    21   20   21 1   
    22   20   23 1   
    23   20   28 1   
    24   21   22 2   
    25   21   38 1   
    26   23   24 1   
    27   23   25 1   
    28   23   29 1   
    29   24   26 1   
    30   24   30 1   
    31   24   31 1   
    32   25   32 1   
    33   25   33 1   
    34   25   34 1   
    35   26   35 1   
    36   26   36 1   
    37   26   37 1   
    38   38   39 1   
    39   38   46 1   
    40   39   40 1   
    41   39   42 1   
    42   39   47 1   
    43   40   41 2   
    44   40   50 1   
    45   42   43 1   
    46   42   48 1   
    47   42   49 1   
    48   43   44 1   
    49   43   45 1   
    50   50   51 1   
    51   50   54 1   
    52   51   52 1   
    53   51   55 1   
    54   51   56 1   
    55   52   53 2   
    56   52   57 1   
    57   57   58 1   
    58   57   65 1   
    59   58   59 1   
    60   58   61 1   
    61   58   66 1   
    62   59   60 2   
    63   59   69 1   
    64   61   62 1   
    65   61   67 1   
    66   61   68 1   
    67   62   63 1   
    68   62   64 1   
    69   69   70 1   
    70   69   73 1   
    71   70   71 1   
    72   70   74 1   
    73   70   75 1   
    74   71   72 2   
    75   71   76 1   
    76   76   77 1   
    77   76   85 1   
    78   77   78 1   
    79   77   80 1   
    80   77   86 1   
    81   78   79 2   
    82   78   93 1   
    83   80   81 1   
    84   80   87 1   
    85   80   88 1   
    86   81   82 1   
    87   81   89 1   
    88   81   90 1   
    89   82   83 1   
    90   82   84 2   
    91   83   91 1   
    92   83   92 1   
    93   93   94 1   
    94   93  100 1   
    95   94   95 1   
    96   94   97 1   
    97   94  101 1   
    98   95   96 2   
    99   95  109 1   
   100   97   98 1   
   101   97   99 1   
   102   97  102 1   
   103   98  103 1   
   104   98  104 1   
   105   98  105 1   
   106   99  106 1   
   107   99  107 1   
   108   99  108 1   
   109  109  110 1   
   110  109  117 1   
   111  110  111 1   
   112  110  113 1   
   113  110  118 1   
   114  111  112 2   
   115  111  123 1   
   116  113  114 1   
   117  113  119 1   
   118  113  120 1   
   119  114  115 1   
   120  114  116 2   
   121  115  121 1   
   122  115  122 1   
   123  123  124 1   
   124  123  135 1   
   125  124  125 1   
   126  124  127 1   
   127  124  136 1   
   128  125  126 2   
   129  125  144 1   
   130  127  128 1   
   131  127  137 1   
   132  127  138 1   
   133  128  129 ar  
   134  128  130 ar  
   135  129  131 ar  
   136  129  139 1   
   137  130  132 ar  
   138  130  140 1   
   139  131  133 ar  
   140  131  141 1   
   141  132  133 ar  
   142  132  142 1   
   143  133  134 1   
   144  134  143 1   
   145  144  145 1   
   146  144  153 1   
   147  145  146 1   
   148  145  148 1   
   149  145  154 1   
   150  146  147 2   
   151  146  159 1   
   152  148  149 1   
   153  148  155 1   
   154  148  156 1   
   155  149  150 1   
   156  149  157 1   
   157  149  158 1   
   158  150  151 1   
   159  150  152 1   
   160  159  160 1   
   161  159  168 1   
   162  160  161 1   
   163  160  163 1   
   164  160  169 1   
   165  161  162 2   
   166  161  174 1   
   167  163  164 1   
   168  163  170 1   
   169  163  171 1   
   170  164  165 1   
   171  164  172 1   
   172  164  173 1   
   173  165  166 1   
   174  165  167 1   
   175  174  175 1   
   176  174  179 1   
   177  175  176 1   
   178  175  177 1   
   179  175  178 1   
   180  181  182 1   
   181  181  183 1   
   182  184  185 1   
   183  184  186 1   
@<TRIPOS>SUBSTRUCTURE
     1 MOL         1 TEMP              0 ****  ****    0 ROOT
