@<TRIPOS>MOLECULE
MOL
  189   185     1     0     0
SMALL
resp


@<TRIPOS>ATOM
      1 C1          0.3730    2.0980    6.2040 c3        1 MOL     -0.305836
      2 C2         -0.2090    2.0290    4.8070 c         1 MOL      0.739236
      3 O1          0.5040    2.3740    3.8720 o         1 MOL     -0.651178
      4 H1          1.4490    2.2580    6.1410 hc        1 MOL      0.080972
      5 H2         -0.0850    2.9240    6.7480 hc        1 MOL      0.080972
      6 H3          0.1750    1.1630    6.7270 hc        1 MOL      0.080972
      7 N1         -1.4850    1.6720    4.5430 n         1 MOL     -0.636730
      8 C3         -2.0550    1.5330    3.1730 c3        1 MOL      0.173867
      9 C4         -2.2950    2.8750    2.5200 c         1 MOL      0.442959
     10 O2         -3.4120    3.4270    2.7280 o         1 MOL     -0.549018
     11 C5         -3.3030    0.6450    3.2250 c3        1 MOL     -0.125409
     12 C6         -3.9530    0.3220    1.8130 c         1 MOL      0.713796
     13 O3         -3.2330    0.5910    0.7930 o         1 MOL     -0.676628
     14 O4         -5.1440   -0.1450    1.8070 o         1 MOL     -0.676628
     15 H4         -1.9920    1.0870    5.2040 hn        1 MOL      0.314152
     16 H5         -1.3440    0.9610    2.5860 h1        1 MOL     -0.021769
     17 H6         -4.1730    0.9890    3.7760 hc        1 MOL      0.031893
     18 H7         -3.0990   -0.3450    3.6290 hc        1 MOL      0.031893
     19 N2         -1.4510    3.3930    1.6390 n         1 MOL      0.029456
     20 C7         -1.3810    4.8570    1.2440 c3        1 MOL     -0.480806
     21 C8         -2.4800    5.3240    0.2980 c         1 MOL      0.588718
     22 O5         -2.8730    6.4980    0.2880 o         1 MOL     -0.593102
     23 C9          0.0320    5.2860    0.8770 c3        1 MOL      0.175659
     24 C10         0.2650    6.8580    0.8170 c3        1 MOL     -0.069392
     25 C11         1.6920    7.1220    0.4370 c3        1 MOL     -0.169884
     26 C12         2.7430    6.1370    1.1620 c3        1 MOL      0.045444
     27 N3          4.1180    6.4280    0.7110 n4        1 MOL     -0.522925
     28 H8         -0.6950    2.7690    1.3940 hn        1 MOL      0.181931
     29 H9         -1.7220    5.4000    2.1200 h1        1 MOL      0.159165
     30 H10         0.3420    4.8250   -0.0550 hc        1 MOL      0.003949
     31 H11         0.6280    4.8420    1.6810 hc        1 MOL      0.003949
     32 H12         0.0610    7.2240    1.8180 hc        1 MOL      0.072112
     33 H13        -0.3970    7.2570    0.0310 hc        1 MOL      0.072112
     34 H14         1.8320    8.1590    0.7420 hc        1 MOL      0.072889
     35 H15         1.7370    7.0540   -0.6540 hc        1 MOL      0.072889
     36 H16         2.5680    5.0610    1.0320 hx        1 MOL      0.119493
     37 H17         2.6470    6.3060    2.2340 hx        1 MOL      0.119493
     38 H18         4.3150    7.4170    0.8390 hn        1 MOL      0.360111
     39 H19         4.7490    5.9570    1.3440 hn        1 MOL      0.360111
     40 H20         4.3220    6.1320   -0.2280 hn        1 MOL      0.360111
     41 N4         -3.0120    4.4060   -0.5110 n         1 MOL     -0.223832
     42 C13        -4.0250    4.5810   -1.5260 c3        1 MOL      0.013542
     43 C14        -5.3460    3.8100   -1.3680 c         1 MOL      0.411499
     44 O6         -6.3850    4.1710   -1.9810 o         1 MOL     -0.536164
     45 C15        -3.4960    4.2230   -2.9140 c3        1 MOL     -0.327260
     46 C16        -2.7240    2.8760   -3.0550 c         1 MOL      0.823096
     47 O7         -2.1150    2.6430   -4.1220 o         1 MOL     -0.712786
     48 O8         -2.6440    2.1240   -2.0540 o         1 MOL     -0.712786
     49 H21        -2.4680    3.5570   -0.5780 hn        1 MOL      0.193290
     50 H22        -4.2670    5.6400   -1.4810 h1        1 MOL      0.105505
     51 H23        -2.7450    4.9560   -3.2140 hc        1 MOL      0.081140
     52 H24        -4.2790    4.2170   -3.6750 hc        1 MOL      0.081140
     53 N5         -5.4240    2.8240   -0.4700 n         1 MOL     -0.042351
     54 C17        -6.6270    2.3600    0.2100 c3        1 MOL     -0.222546
     55 C18        -7.4230    1.2900   -0.6140 c         1 MOL      0.494799
     56 O9         -8.6400    1.1680   -0.4470 o         1 MOL     -0.549046
     57 H25        -4.5660    2.5070   -0.0420 hn        1 MOL      0.068218
     58 H26        -7.2310    3.2660    0.2840 h1        1 MOL      0.126582
     59 H27        -6.4690    2.0500    1.2410 h1        1 MOL      0.126582
     60 N6         -6.6960    0.4530   -1.3210 n         1 MOL     -0.173549
     61 C19        -7.2390   -0.7730   -1.9980 c3        1 MOL     -0.104513
     62 C20        -7.2740   -2.0400   -1.1150 c         1 MOL      0.461728
     63 O10        -7.7280   -3.0950   -1.6030 o         1 MOL     -0.556286
     64 C21        -6.3470   -1.0630   -3.2110 c3        1 MOL     -0.057073
     65 C22        -4.8250   -1.1530   -3.0970 c         1 MOL      0.710797
     66 O11        -4.1270   -1.4420   -4.0240 o         1 MOL     -0.670861
     67 O12        -4.3280   -0.9300   -1.9710 o         1 MOL     -0.670861
     68 H28        -5.7040    0.6410   -1.3770 hn        1 MOL      0.093478
     69 H29        -8.2780   -0.5350   -2.2500 h1        1 MOL      0.119195
     70 H30        -6.5100   -0.2670   -3.9420 hc        1 MOL      0.029169
     71 H31        -6.7350   -1.9140   -3.7590 hc        1 MOL      0.029169
     72 N7         -6.6930   -1.9710    0.0750 n         1 MOL     -0.190692
     73 C23        -6.8620   -3.0800    1.0540 c3        1 MOL     -0.076489
     74 C24        -5.6730   -4.0370    1.0540 c         1 MOL      0.490963
     75 O13        -5.8370   -5.2120    1.4830 o         1 MOL     -0.582332
     76 H32        -6.2260   -1.1190    0.3170 hn        1 MOL      0.213735
     77 H33        -7.7720   -3.6500    0.8930 h1        1 MOL      0.092177
     78 H34        -7.0270   -2.7770    2.0880 h1        1 MOL      0.092177
     79 N8         -4.4980   -3.6520    0.5990 n         1 MOL     -0.230574
     80 C25        -3.2450   -4.4470    0.5220 c3        1 MOL     -0.100962
     81 C26        -2.0460   -3.5970    0.6120 c         1 MOL      0.751892
     82 O14        -2.0880   -2.4030    0.2880 o         1 MOL     -0.683576
     83 C27        -3.1380   -5.3350   -0.7080 c3        1 MOL      0.378535
     84 C28        -4.0820   -6.4910   -0.8330 c3        1 MOL     -0.504421
     85 O15        -3.2490   -4.6400   -1.9210 oh        1 MOL     -0.588255
     86 H35        -4.5230   -2.7310    0.1970 hn        1 MOL      0.144644
     87 H36        -3.1920   -5.1310    1.3640 h1        1 MOL      0.071302
     88 H37        -2.1300   -5.7360   -0.6800 h1        1 MOL     -0.005659
     89 H38        -3.9070   -5.1300   -2.4240 ho        1 MOL      0.394413
     90 H39        -4.3110   -7.1130    0.0380 hc        1 MOL      0.140749
     91 H40        -5.0570   -6.0690   -1.0770 hc        1 MOL      0.140749
     92 H41        -3.7780   -7.1380   -1.6580 hc        1 MOL      0.140749
     93 N9         -0.9180   -4.1630    1.0730 n         1 MOL     -0.633019
     94 C29         0.3380   -3.4500    1.2980 c3        1 MOL      0.264431
     95 C30         1.2860   -4.0490    0.3220 c         1 MOL      0.453792
     96 O16         1.5400   -5.2490    0.2410 o         1 MOL     -0.544019
     97 C31         0.7270   -3.4760    2.8420 c3        1 MOL     -0.044316
     98 C32         0.0490   -2.3770    3.6730 c3        1 MOL      0.080761
     99 C33         2.2270   -3.5180    3.0380 c3        1 MOL     -0.202204
    100 C34         0.4240   -2.4740    5.1210 c3        1 MOL     -0.186233
    101 H42        -1.1710   -5.0340    1.5000 hn        1 MOL      0.291021
    102 H43         0.1600   -2.3820    1.1690 h1        1 MOL      0.004152
    103 H44         0.3720   -4.4270    3.2460 hc        1 MOL      0.050226
    104 H45        -1.0270   -2.5420    3.5770 hc        1 MOL      0.003748
    105 H46         0.3010   -1.3900    3.2950 hc        1 MOL      0.003748
    106 H47         2.6310   -2.7100    2.4280 hc        1 MOL      0.040372
    107 H48         2.6550   -3.3510    4.0250 hc        1 MOL      0.040372
    108 H49         2.5890   -4.4340    2.5760 hc        1 MOL      0.040372
    109 H50         1.4010   -2.0820    5.3880 hc        1 MOL      0.049081
    110 H51        -0.3800   -2.1120    5.7630 hc        1 MOL      0.049081
    111 H52         0.4390   -3.5330    5.3780 hc        1 MOL      0.049081
    112 N10         1.8400   -3.0880   -0.3720 n         1 MOL     -0.052277
    113 C35         3.1040   -3.2210   -1.2400 c3        1 MOL     -0.123590
    114 C36         4.4240   -3.0350   -0.4880 c         1 MOL      0.358317
    115 O17         4.4700   -2.6480    0.7120 o         1 MOL     -0.313994
    116 C37         2.9840   -2.2500   -2.4160 c3        1 MOL      0.227033
    117 C38         1.8040   -2.3660   -3.3520 c3        1 MOL     -0.408176
    118 O18         3.0460   -0.9440   -1.8430 oh        1 MOL     -0.593256
    119 H53         1.4440   -2.1650   -0.2480 hn        1 MOL      0.028130
    120 H54         3.2120   -4.2610   -1.5530 h1        1 MOL      0.088052
    121 H55         3.8780   -2.2730   -3.0380 h1        1 MOL      0.045321
    122 H56         2.1460   -0.8860   -1.5230 ho        1 MOL      0.402584
    123 H57         1.9450   -1.6820   -4.1950 hc        1 MOL      0.119759
    124 H58         1.7610   -3.4170   -3.6420 hc        1 MOL      0.119759
    125 H59         0.8240   -2.1130   -2.9480 hc        1 MOL      0.119759
    126 N11         5.5900   -3.1510   -1.1960 n         1 MOL     -0.272055
    127 C39         6.9400   -2.9180   -0.6060 c3        1 MOL     -0.147733
    128 C40         7.2530   -1.4390   -0.2290 c         1 MOL      0.447021
    129 O19         7.8280   -1.2500    0.8470 o         1 MOL     -0.487719
    130 C41         8.0610   -3.4700   -1.5770 c3        1 MOL      0.248633
    131 C42         7.9140   -4.9490   -1.8930 c3        1 MOL     -0.333998
    132 O20         8.1040   -2.7520   -2.8410 oh        1 MOL     -0.652231
    133 H60         5.5130   -3.2540   -2.1940 hn        1 MOL      0.250455
    134 H61         6.9920   -3.5270    0.2880 h1        1 MOL      0.156291
    135 H62         8.9850   -3.2810   -1.0290 h1        1 MOL      0.051500
    136 H63         8.7830   -3.2380   -3.3080 ho        1 MOL      0.420987
    137 H64         7.6110   -5.4210   -0.9570 hc        1 MOL      0.097476
    138 H65         7.0310   -5.0850   -2.5230 hc        1 MOL      0.097476
    139 H66         8.7580   -5.4170   -2.3900 hc        1 MOL      0.097476
    140 N12         6.7520   -0.4000   -0.8730 n         1 MOL     -0.320577
    141 C43         6.8110    0.9650   -0.3960 c3        1 MOL      0.033525
    142 C44         5.9790    1.2580    0.9220 c         1 MOL      0.280252
    143 O21         6.4940    1.8850    1.8370 o         1 MOL     -0.483524
    144 C45         6.3030    1.9000   -1.5190 c3        1 MOL     -0.449682
    145 C46         7.4370    2.1050   -2.5970 c3        1 MOL      0.100226
    146 C47         6.8940    3.0610   -3.6180 c3        1 MOL     -0.136637
    147 C48         7.7810    3.2070   -4.8990 c3        1 MOL     -0.061183
    148 N13         9.0660    3.8030   -4.5680 n4        1 MOL     -0.444606
    149 H67         6.2520   -0.5570   -1.7430 hn        1 MOL      0.297026
    150 H68         7.8290    1.3240   -0.2140 h1        1 MOL      0.111568
    151 H69         6.0550    2.8540   -1.0390 hc        1 MOL      0.147979
    152 H70         5.4080    1.5670   -2.0370 hc        1 MOL      0.147979
    153 H71         7.6900    1.1590   -3.0730 hc        1 MOL      0.025323
    154 H72         8.4140    2.3650   -2.2100 hc        1 MOL      0.025323
    155 H73         6.5540    4.0000   -3.1760 hc        1 MOL      0.082717
    156 H74         5.9900    2.6520   -4.0700 hc        1 MOL      0.082717
    157 H75         7.2280    3.7810   -5.6330 hx        1 MOL      0.129315
    158 H76         7.8880    2.1630   -5.2030 hx        1 MOL      0.129315
    159 H77         9.7140    3.6200   -5.3150 hn        1 MOL      0.324552
    160 H78         8.8710    4.7830   -4.4420 hn        1 MOL      0.324552
    161 H79         9.5040    3.2520   -3.8470 hn        1 MOL      0.324552
    162 N14         4.8490    0.5190    1.0160 n         1 MOL      0.022736
    163 C49         3.9490    0.5990    2.1290 c3        1 MOL     -0.202083
    164 C50         4.4260   -0.2010    3.3490 c         1 MOL      0.414889
    165 O22         4.0710    0.0390    4.5100 o         1 MOL     -0.534859
    166 C51         2.5250    0.2100    1.7170 c3        1 MOL      0.128176
    167 C52         1.9360    1.1890    0.6790 c3        1 MOL      0.046966
    168 C53         0.6870    0.6390   -0.0530 c         1 MOL      0.625307
    169 O23         0.6790   -0.4250   -0.6710 o         1 MOL     -0.664976
    170 O24        -0.3790    1.3010    0.0980 o         1 MOL     -0.664976
    171 H80         4.6030    0.0440    0.1610 hn        1 MOL      0.120976
    172 H81         3.7560    1.5930    2.5110 h1        1 MOL      0.086386
    173 H82         1.8070    0.2230    2.5390 hc        1 MOL      0.055249
    174 H83         2.5430   -0.8180    1.3560 hc        1 MOL      0.055249
    175 H84         2.6820    1.4290   -0.0770 hc        1 MOL     -0.060897
    176 H85         1.7100    2.1810    1.0800 hc        1 MOL     -0.060897
    177 N15         5.0770   -1.3820    3.1660 n         1 MOL      0.007048
    178 C54         5.8620   -2.2280    4.1050 c3        1 MOL     -0.223015
    179 H86         6.9250   -2.1170    3.8920 h1        1 MOL      0.088205
    180 H87         5.6630   -1.9140    5.1300 h1        1 MOL      0.088205
    181 H88         5.5740   -3.2720    3.9830 h1        1 MOL      0.088205
    182 H89         4.9750   -1.8340    2.2700 hn        1 MOL      0.038771
    183 Ca1        -1.9670   -0.3130   -1.2680 Ca        1 MOL      1.746192
    184 O25        -2.0570   -2.4580   -2.8790 oh        1 MOL     -0.926690
    185 H90        -2.8380   -2.1420   -3.3210 ho        1 MOL      0.418306
    186 H91        -2.2600   -3.3650   -2.6470 ho        1 MOL      0.418306
    187 O26        -0.6910    0.5590   -3.8060 oh        1 MOL     -0.926690
    188 H92        -1.1000    1.3750   -4.0970 ho        1 MOL      0.418306
    189 H93        -0.4080    0.1310   -4.6180 ho        1 MOL      0.418306
@<TRIPOS>BOND
     1    1    2 1   
     2    1    4 1   
     3    1    5 1   
     4    1    6 1   
     5    2    3 2   
     6    2    7 1   
     7    7    8 1   
     8    7   15 1   
     9    8    9 1   
    10    8   11 1   
    11    8   16 1   
    12    9   10 2   
    13    9   19 1   
    14   11   12 1   
    15   11   17 1   
    16   11   18 1   
    17   12   13 1   
    18   12   14 1   
    19   19   20 1   
    20   19   28 1   
    21   20   21 1   
    22   20   23 1   
    23   20   29 1   
    24   21   22 2   
    25   21   41 1   
    26   23   24 1   
    27   23   30 1   
    28   23   31 1   
    29   24   25 1   
    30   24   32 1   
    31   24   33 1   
    32   25   26 1   
    33   25   34 1   
    34   25   35 1   
    35   26   27 1   
    36   26   36 1   
    37   26   37 1   
    38   27   38 1   
    39   27   39 1   
    40   27   40 1   
    41   41   42 1   
    42   41   49 1   
    43   42   43 1   
    44   42   45 1   
    45   42   50 1   
    46   43   44 2   
    47   43   53 1   
    48   45   46 1   
    49   45   51 1   
    50   45   52 1   
    51   46   47 1   
    52   46   48 1   
    53   53   54 1   
    54   53   57 1   
    55   54   55 1   
    56   54   58 1   
    57   54   59 1   
    58   55   56 2   
    59   55   60 1   
    60   60   61 1   
    61   60   68 1   
    62   61   62 1   
    63   61   64 1   
    64   61   69 1   
    65   62   63 2   
    66   62   72 1   
    67   64   65 1   
    68   64   70 1   
    69   64   71 1   
    70   65   66 1   
    71   65   67 1   
    72   72   73 1   
    73   72   76 1   
    74   73   74 1   
    75   73   77 1   
    76   73   78 1   
    77   74   75 2   
    78   74   79 1   
    79   79   80 1   
    80   79   86 1   
    81   80   81 1   
    82   80   83 1   
    83   80   87 1   
    84   81   82 2   
    85   81   93 1   
    86   83   84 1   
    87   83   85 1   
    88   83   88 1   
    89   84   90 1   
    90   84   91 1   
    91   84   92 1   
    92   85   89 1   
    93   93   94 1   
    94   93  101 1   
    95   94   95 1   
    96   94   97 1   
    97   94  102 1   
    98   95   96 2   
    99   95  112 1   
   100   97   98 1   
   101   97   99 1   
   102   97  103 1   
   103   98  100 1   
   104   98  104 1   
   105   98  105 1   
   106   99  106 1   
   107   99  107 1   
   108   99  108 1   
   109  100  109 1   
   110  100  110 1   
   111  100  111 1   
   112  112  113 1   
   113  112  119 1   
   114  113  114 1   
   115  113  116 1   
   116  113  120 1   
   117  114  115 2   
   118  114  126 1   
   119  116  117 1   
   120  116  118 1   
   121  116  121 1   
   122  117  123 1   
   123  117  124 1   
   124  117  125 1   
   125  118  122 1   
   126  126  127 1   
   127  126  133 1   
   128  127  128 1   
   129  127  130 1   
   130  127  134 1   
   131  128  129 2   
   132  128  140 1   
   133  130  131 1   
   134  130  132 1   
   135  130  135 1   
   136  131  137 1   
   137  131  138 1   
   138  131  139 1   
   139  132  136 1   
   140  140  141 1   
   141  140  149 1   
   142  141  142 1   
   143  141  144 1   
   144  141  150 1   
   145  142  143 2   
   146  142  162 1   
   147  144  145 1   
   148  144  151 1   
   149  144  152 1   
   150  145  146 1   
   151  145  153 1   
   152  145  154 1   
   153  146  147 1   
   154  146  155 1   
   155  146  156 1   
   156  147  148 1   
   157  147  157 1   
   158  147  158 1   
   159  148  159 1   
   160  148  160 1   
   161  148  161 1   
   162  162  163 1   
   163  162  171 1   
   164  163  164 1   
   165  163  166 1   
   166  163  172 1   
   167  164  165 2   
   168  164  177 1   
   169  166  167 1   
   170  166  173 1   
   171  166  174 1   
   172  167  168 1   
   173  167  175 1   
   174  167  176 1   
   175  168  169 1   
   176  168  170 1   
   177  177  178 1   
   178  177  182 1   
   179  178  179 1   
   180  178  180 1   
   181  178  181 1   
   182  184  185 1   
   183  184  186 1   
   184  187  188 1   
   185  187  189 1   
@<TRIPOS>SUBSTRUCTURE
     1 MOL         1 TEMP              0 ****  ****    0 ROOT
