@<TRIPOS>MOLECULE
MOL
  179   176     1     0     0
SMALL
resp


@<TRIPOS>ATOM
      1 C1          2.3350    3.1670    4.0950 c3        1 MOL     -0.476376
      2 C2          1.3960    3.0480    2.8520 c         1 MOL      0.704612
      3 O1          1.8590    3.4050    1.7810 o         1 MOL     -0.540808
      4 H1          3.3710    3.2270    3.7630 hc        1 MOL      0.130638
      5 H2          2.0830    4.0670    4.6570 hc        1 MOL      0.130638
      6 H3          2.2080    2.2920    4.7340 hc        1 MOL      0.130638
      7 N1          0.1140    2.6980    3.1190 n         1 MOL     -0.791293
      8 C3         -0.9870    2.5880    2.1030 c3        1 MOL      0.488430
      9 C4         -1.6250    3.9390    1.7050 c         1 MOL      0.402350
     10 O2         -2.8290    4.2100    1.7450 o         1 MOL     -0.489122
     11 C5         -1.9030    1.5450    2.5750 c3        1 MOL     -0.272681
     12 C6         -3.0580    1.3370    1.4980 c         1 MOL      0.508932
     13 O3         -4.1250    0.7620    1.7840 o         1 MOL     -0.615707
     14 O4         -2.8150    1.4810    0.2720 o         1 MOL     -0.615707
     15 H4          0.0160    2.3940    4.0720 hn        1 MOL      0.360634
     16 H5         -0.5470    2.1960    1.1840 h1        1 MOL     -0.050372
     17 H6         -2.2650    1.7600    3.5850 hc        1 MOL      0.078979
     18 H7         -1.3960    0.5750    2.5510 hc        1 MOL      0.078979
     19 N2         -0.7830    4.7450    1.0980 n         1 MOL     -0.332439
     20 C7         -1.0900    6.1740    0.6930 c3        1 MOL     -0.009993
     21 C8         -2.0620    6.2470   -0.5210 c         1 MOL      0.388921
     22 O5         -2.5290    7.3360   -0.7550 o         1 MOL     -0.527811
     23 C9          0.2020    6.8750    0.3590 c3        1 MOL     -0.212735
     24 C10         1.2020    6.9470    1.5500 c3        1 MOL     -0.048777
     25 C11         2.5920    7.4250    1.1260 c3        1 MOL     -0.325339
     26 C12         3.2870    6.5460    0.0060 c3        1 MOL     -0.173448
     27 N3          3.7590    5.1980    0.4650 n4        1 MOL     -0.202420
     28 H8          0.1020    4.3120    0.8720 hn        1 MOL      0.349978
     29 H9         -1.5690    6.6570    1.5380 h1        1 MOL      0.133564
     30 H10         0.1040    7.9320    0.1110 hc        1 MOL      0.114347
     31 H11         0.7370    6.3520   -0.4390 hc        1 MOL      0.114347
     32 H12         1.2210    5.9930    2.0920 hc        1 MOL      0.054322
     33 H13         0.8490    7.7460    2.2030 hc        1 MOL      0.054322
     34 H14         3.3080    7.6020    1.9270 hc        1 MOL      0.158677
     35 H15         2.3260    8.4080    0.7300 hc        1 MOL      0.158677
     36 H16         4.2130    7.0390   -0.2970 hx        1 MOL      0.128210
     37 H17         2.6340    6.4940   -0.8740 hx        1 MOL      0.128210
     38 H18         2.9910    4.5690    0.6330 hn        1 MOL      0.298036
     39 H19         4.2580    4.8270   -0.3380 hn        1 MOL      0.298036
     40 H20         4.4110    5.2990    1.2380 hn        1 MOL      0.298036
     41 N4         -2.3180    5.1040   -1.1910 n         1 MOL     -0.072556
     42 C13        -3.1980    4.8670   -2.3320 c3        1 MOL     -0.022494
     43 C14        -4.4610    4.1350   -1.8410 c         1 MOL      0.361050
     44 O6         -5.5150    4.0340   -2.5730 o         1 MOL     -0.567957
     45 C15        -2.4180    3.9610   -3.3190 c3        1 MOL     -0.163359
     46 C16        -1.9960    2.6390   -2.6470 c         1 MOL      0.617221
     47 O7         -1.0190    2.7320   -1.8450 o         1 MOL     -0.707310
     48 O8         -2.6390    1.5840   -2.7530 o         1 MOL     -0.707310
     49 H21        -1.6220    4.4020   -0.9780 hn        1 MOL      0.075185
     50 H22        -3.4940    5.7820   -2.8290 h1        1 MOL      0.100804
     51 H23        -1.5580    4.5290   -3.6780 hc        1 MOL      0.054553
     52 H24        -3.0110    3.7530   -4.2120 hc        1 MOL      0.054553
     53 N5         -4.4680    3.6860   -0.6430 n         1 MOL      0.117169
     54 C17        -5.6410    3.3880    0.0910 c3        1 MOL     -0.302937
     55 C18        -6.4240    2.1480   -0.4200 c         1 MOL      0.559426
     56 O9         -7.6510    2.0470   -0.1410 o         1 MOL     -0.578055
     57 H25        -3.5990    3.6850   -0.1250 hn        1 MOL      0.027955
     58 H26        -6.3330    4.2210    0.0350 h1        1 MOL      0.132507
     59 H27        -5.2960    3.1470    1.0980 h1        1 MOL      0.132507
     60 N6         -5.7830    1.1660   -1.0620 n         1 MOL     -0.236638
     61 C19        -6.3120   -0.1190   -1.4810 c3        1 MOL     -0.097027
     62 C20        -6.6130   -1.1670   -0.4090 c         1 MOL      0.331187
     63 O10        -7.4360   -2.0560   -0.5790 o         1 MOL     -0.483846
     64 C21        -5.5150   -0.5920   -2.7080 c3        1 MOL     -0.036482
     65 C22        -4.1680   -1.2250   -2.4370 c         1 MOL      0.636436
     66 N7         -3.6930   -2.1340   -3.2860 n         1 MOL     -0.802824
     67 O11        -3.5180   -1.0240   -1.4570 o         1 MOL     -0.548085
     68 H28        -4.7870    1.3390   -1.1730 hn        1 MOL      0.218754
     69 H29        -7.2850    0.1070   -1.9330 h1        1 MOL      0.122249
     70 H30        -5.4000    0.3020   -3.3250 hc        1 MOL      0.044078
     71 H31        -6.1880   -1.2520   -3.2620 hc        1 MOL      0.044078
     72 H32        -4.3470   -2.4900   -3.9630 hn        1 MOL      0.351030
     73 H33        -2.9090   -2.6850   -2.9590 hn        1 MOL      0.351030
     74 N8         -6.0150   -0.9350    0.7920 n         1 MOL      0.005141
     75 C23        -6.1860   -1.7440    2.0350 c3        1 MOL     -0.406631
     76 C24        -5.0090   -2.6670    2.1730 c         1 MOL      0.660099
     77 O12        -5.0370   -3.6530    2.8900 o         1 MOL     -0.555760
     78 H34        -5.4640   -0.0900    0.8500 hn        1 MOL      0.146840
     79 H35        -7.1170   -2.3080    1.9650 h1        1 MOL      0.163547
     80 H36        -6.2450   -1.0890    2.9050 h1        1 MOL      0.163547
     81 N9         -3.9640   -2.3910    1.3650 n         1 MOL     -0.472719
     82 C25        -2.7210   -3.1950    1.2800 c3        1 MOL      0.255782
     83 C26        -1.3970   -2.3820    1.2160 c         1 MOL      0.473735
     84 O13        -1.3940   -1.3000    0.6620 o         1 MOL     -0.566720
     85 C27        -2.8100   -4.1570    0.1280 c3        1 MOL      0.029055
     86 C28        -3.8450   -5.2650    0.2990 ca        1 MOL     -0.189217
     87 C29        -5.2050   -5.0110   -0.0480 ca        1 MOL      0.076910
     88 C30        -3.4680   -6.5370    0.6880 ca        1 MOL      0.076910
     89 C31        -6.1650   -6.0740   -0.1390 ca        1 MOL     -0.441353
     90 C32        -4.3760   -7.6160    0.5740 ca        1 MOL     -0.441353
     91 C33        -5.7500   -7.4000    0.2590 ca        1 MOL      0.471623
     92 O14        -6.5930   -8.3980    0.1820 oh        1 MOL     -0.445074
     93 H37        -3.9870   -1.6210    0.7200 hn        1 MOL      0.344657
     94 H38        -2.7310   -3.7630    2.2130 h1        1 MOL     -0.020431
     95 H39        -1.8690   -4.7150    0.0760 hc        1 MOL     -0.026666
     96 H40        -3.0000   -3.5730   -0.7650 hc        1 MOL     -0.026666
     97 H41        -5.4830   -4.0100   -0.3520 ha        1 MOL      0.064098
     98 H42        -2.4460   -6.8480    0.8580 ha        1 MOL      0.064098
     99 H43        -7.1500   -5.8910   -0.5230 ha        1 MOL      0.178625
    100 H44        -4.1830   -8.6350    0.8610 ha        1 MOL      0.178625
    101 H45        -6.2000   -9.2660    0.2340 ho        1 MOL      0.329222
    102 N10        -0.3280   -3.0620    1.6500 n         1 MOL     -0.524904
    103 C34         1.0780   -2.6240    1.5110 c3        1 MOL      0.024249
    104 C35         1.8370   -3.6150    0.5940 c         1 MOL      0.581561
    105 O15         1.8790   -4.8280    0.8910 o         1 MOL     -0.549986
    106 C36         1.6620   -2.6420    2.9420 c3        1 MOL      0.081739
    107 C37         1.0280   -1.4810    3.7240 c3        1 MOL      0.094028
    108 C38         3.2410   -2.5210    2.9980 c3        1 MOL     -0.190883
    109 C39         1.0870   -1.5980    5.2910 c3        1 MOL     -0.326474
    110 H46        -0.4890   -4.0310    1.8830 hn        1 MOL      0.331782
    111 H47         1.1890   -1.6050    1.1450 h1        1 MOL     -0.029086
    112 H48         1.4150   -3.5960    3.3920 hc        1 MOL      0.019453
    113 H49        -0.0050   -1.2570    3.4310 hc        1 MOL      0.036274
    114 H50         1.6300   -0.5970    3.5340 hc        1 MOL      0.036274
    115 H51         3.6810   -3.3790    2.4860 hc        1 MOL      0.036287
    116 H52         3.6170   -1.6550    2.4650 hc        1 MOL      0.036287
    117 H53         3.5630   -2.3520    4.0280 hc        1 MOL      0.036287
    118 H54         0.7780   -2.6300    5.4500 hc        1 MOL      0.082316
    119 H55         2.0440   -1.2920    5.7100 hc        1 MOL      0.082316
    120 H56         0.2080   -1.0040    5.5770 hc        1 MOL      0.082316
    121 N11         2.4640   -3.1260   -0.4640 n         1 MOL     -0.337109
    122 C40         3.5720   -3.7220   -1.1850 c3        1 MOL     -0.075511
    123 C41         4.9790   -3.4460   -0.6390 c         1 MOL      0.661693
    124 O16         5.1170   -2.6130    0.1750 o         1 MOL     -0.413517
    125 C42         3.4410   -3.1820   -2.6690 c3        1 MOL     -0.021859
    126 O17         3.7740   -1.8430   -2.5510 oh        1 MOL     -0.521787
    127 H57         2.2630   -2.1540   -0.6450 hn        1 MOL      0.226459
    128 H58         3.4360   -4.8060   -1.1280 h1        1 MOL      0.049544
    129 H59         2.4080   -3.1710   -3.0050 h1        1 MOL      0.073477
    130 H60         4.0170   -3.8310   -3.3260 h1        1 MOL      0.073477
    131 H61         3.0050   -1.4200   -2.1660 ho        1 MOL      0.363269
    132 N12         6.0070   -4.0480   -1.2000 n         1 MOL     -0.608889
    133 C43         7.3700   -3.9410   -0.6870 c3        1 MOL      0.270112
    134 C44         7.9560   -2.5430   -0.8780 c         1 MOL      0.408463
    135 O18         8.4510   -2.0190    0.1680 o         1 MOL     -0.536758
    136 C45         8.3590   -4.9320   -1.4240 c3        1 MOL     -0.286433
    137 H62         5.8460   -4.6230   -2.0090 hn        1 MOL      0.316712
    138 H63         7.4400   -4.2080    0.3680 h1        1 MOL      0.056555
    139 H64         7.9710   -5.9250   -1.1750 hc        1 MOL      0.082359
    140 H65         8.1910   -4.6790   -2.4750 hc        1 MOL      0.082359
    141 H66         9.3880   -4.8280   -1.0950 hc        1 MOL      0.082359
    142 N13         7.7320   -1.9330   -2.0260 n         1 MOL     -0.355586
    143 C46         8.1800   -0.5850   -2.3900 c3        1 MOL      0.041211
    144 C47         7.5470    0.4280   -1.4450 c         1 MOL      0.476547
    145 O19         8.2380    1.3700   -1.1030 o         1 MOL     -0.512794
    146 C48         7.8660   -0.3920   -3.8830 c3        1 MOL     -0.354375
    147 H67         7.3350   -2.5690   -2.6970 hn        1 MOL      0.287386
    148 H68         9.2490   -0.5290   -2.1700 h1        1 MOL      0.119912
    149 H69         8.6270   -0.7910   -4.5570 hc        1 MOL      0.111522
    150 H70         6.8550   -0.7290   -4.1500 hc        1 MOL      0.111522
    151 H71         7.9550    0.6670   -4.1240 hc        1 MOL      0.111522
    152 N14         6.2610    0.2880   -1.0550 n         1 MOL     -0.276163
    153 C49         5.6700    1.3190   -0.0950 c3        1 MOL     -0.130750
    154 C50         6.0000    1.0260    1.4200 c         1 MOL      0.516845
    155 O20         6.0240    1.9550    2.2330 o         1 MOL     -0.565021
    156 C51         4.1290    1.5120   -0.3120 c3        1 MOL     -0.068667
    157 C52         3.2360    0.4540    0.4310 c3        1 MOL     -0.140285
    158 C53         1.9000    0.4780   -0.3700 c         1 MOL      0.878492
    159 O21         1.6490   -0.4830   -1.1170 o         1 MOL     -0.776349
    160 O22         1.0940    1.4010   -0.2410 o         1 MOL     -0.776349
    161 H72         5.6480   -0.4910   -1.2660 hn        1 MOL      0.196247
    162 H73         6.2190    2.2470   -0.2780 h1        1 MOL      0.101818
    163 H74         3.8990    1.4030   -1.3720 hc        1 MOL      0.024729
    164 H75         3.8400    2.4660    0.1190 hc        1 MOL      0.024729
    165 H76         3.1210    0.7270    1.4770 hc        1 MOL      0.024795
    166 H77         3.7010   -0.5050    0.1820 hc        1 MOL      0.024795
    167 N15         6.3100   -0.2390    1.7800 n         1 MOL     -0.066442
    168 C54         7.0410   -0.5210    3.0310 c3        1 MOL     -0.328944
    169 H78         8.0970   -0.2890    2.8940 h1        1 MOL      0.127029
    170 H79         6.6360    0.0930    3.8350 h1        1 MOL      0.127029
    171 H80         6.9310   -1.5750    3.2880 h1        1 MOL      0.127029
    172 H81         6.1740   -1.0230    1.1460 hn        1 MOL      0.148554
    173 Ca1        -0.9940    0.1570   -1.3890 Ca        1 MOL      1.763834
    174 O23         0.0740    0.6030   -4.0520 oh        1 MOL     -0.805195
    175 H82         0.9600    0.9470   -4.0220 ho        1 MOL      0.407366
    176 H83        -0.1680    0.6290   -4.9800 ho        1 MOL      0.407366
    177 O24        -0.4880   -2.1290   -2.7080 oh        1 MOL     -0.805195
    178 H84        -0.2800   -3.0530   -2.5650 ho        1 MOL      0.407366
    179 H85        -0.2220   -1.9560   -3.6060 ho        1 MOL      0.407366
@<TRIPOS>BOND
     1    1    2 1   
     2    1    4 1   
     3    1    5 1   
     4    1    6 1   
     5    2    3 2   
     6    2    7 1   
     7    7    8 1   
     8    7   15 1   
     9    8    9 1   
    10    8   11 1   
    11    8   16 1   
    12    9   10 2   
    13    9   19 1   
    14   11   12 1   
    15   11   17 1   
    16   11   18 1   
    17   12   13 1   
    18   12   14 1   
    19   19   20 1   
    20   19   28 1   
    21   20   21 1   
    22   20   23 1   
    23   20   29 1   
    24   21   22 2   
    25   21   41 1   
    26   23   24 1   
    27   23   30 1   
    28   23   31 1   
    29   24   25 1   
    30   24   32 1   
    31   24   33 1   
    32   25   26 1   
    33   25   34 1   
    34   25   35 1   
    35   26   27 1   
    36   26   36 1   
    37   26   37 1   
    38   27   38 1   
    39   27   39 1   
    40   27   40 1   
    41   41   42 1   
    42   41   49 1   
    43   42   43 1   
    44   42   45 1   
    45   42   50 1   
    46   43   44 2   
    47   43   53 1   
    48   45   46 1   
    49   45   51 1   
    50   45   52 1   
    51   46   47 1   
    52   46   48 1   
    53   53   54 1   
    54   53   57 1   
    55   54   55 1   
    56   54   58 1   
    57   54   59 1   
    58   55   56 2   
    59   55   60 1   
    60   60   61 1   
    61   60   68 1   
    62   61   62 1   
    63   61   64 1   
    64   61   69 1   
    65   62   63 2   
    66   62   74 1   
    67   64   65 1   
    68   64   70 1   
    69   64   71 1   
    70   65   66 1   
    71   65   67 2   
    72   66   72 1   
    73   66   73 1   
    74   74   75 1   
    75   74   78 1   
    76   75   76 1   
    77   75   79 1   
    78   75   80 1   
    79   76   77 2   
    80   76   81 1   
    81   81   82 1   
    82   81   93 1   
    83   82   83 1   
    84   82   85 1   
    85   82   94 1   
    86   83   84 2   
    87   83  102 1   
    88   85   86 1   
    89   85   95 1   
    90   85   96 1   
    91   86   87 ar  
    92   86   88 ar  
    93   87   89 ar  
    94   87   97 1   
    95   88   90 ar  
    96   88   98 1   
    97   89   91 ar  
    98   89   99 1   
    99   90   91 ar  
   100   90  100 1   
   101   91   92 1   
   102   92  101 1   
   103  102  103 1   
   104  102  110 1   
   105  103  104 1   
   106  103  106 1   
   107  103  111 1   
   108  104  105 2   
   109  104  121 1   
   110  106  107 1   
   111  106  108 1   
   112  106  112 1   
   113  107  109 1   
   114  107  113 1   
   115  107  114 1   
   116  108  115 1   
   117  108  116 1   
   118  108  117 1   
   119  109  118 1   
   120  109  119 1   
   121  109  120 1   
   122  121  122 1   
   123  121  127 1   
   124  122  123 1   
   125  122  125 1   
   126  122  128 1   
   127  123  124 2   
   128  123  132 1   
   129  125  126 1   
   130  125  129 1   
   131  125  130 1   
   132  126  131 1   
   133  132  133 1   
   134  132  137 1   
   135  133  134 1   
   136  133  136 1   
   137  133  138 1   
   138  134  135 2   
   139  134  142 1   
   140  136  139 1   
   141  136  140 1   
   142  136  141 1   
   143  142  143 1   
   144  142  147 1   
   145  143  144 1   
   146  143  146 1   
   147  143  148 1   
   148  144  145 2   
   149  144  152 1   
   150  146  149 1   
   151  146  150 1   
   152  146  151 1   
   153  152  153 1   
   154  152  161 1   
   155  153  154 1   
   156  153  156 1   
   157  153  162 1   
   158  154  155 2   
   159  154  167 1   
   160  156  157 1   
   161  156  163 1   
   162  156  164 1   
   163  157  158 1   
   164  157  165 1   
   165  157  166 1   
   166  158  159 1   
   167  158  160 1   
   168  167  168 1   
   169  167  172 1   
   170  168  169 1   
   171  168  170 1   
   172  168  171 1   
   173  174  175 1   
   174  174  176 1   
   175  177  178 1   
   176  177  179 1   
@<TRIPOS>SUBSTRUCTURE
     1 MOL         1 TEMP              0 ****  ****    0 ROOT
