@<TRIPOS>MOLECULE
MOL
  175   173     1     0     0
SMALL
resp


@<TRIPOS>ATOM
      1 C1          0.8140    4.3810    5.1570 c3        1 MOL     -0.316937
      2 C2          0.1280    4.0430    3.8110 c         1 MOL      0.712800
      3 O1          0.8090    3.9090    2.8110 o         1 MOL     -0.530930
      4 H1          1.8920    4.4430    5.0090 hc        1 MOL      0.070129
      5 H2          0.4440    5.3380    5.5240 hc        1 MOL      0.070129
      6 H3          0.5920    3.6010    5.8850 hc        1 MOL      0.070129
      7 N1         -1.1730    3.7810    3.8840 n         1 MOL     -0.686365
      8 C3         -1.9650    3.5670    2.7010 c3        1 MOL      0.194292
      9 C4         -1.9850    4.7620    1.6930 c         1 MOL      0.583178
     10 O2         -2.0500    5.9180    2.1510 o         1 MOL     -0.584008
     11 C5         -3.4130    3.1970    3.0580 c3        1 MOL     -0.422972
     12 C6         -4.1830    2.4840    1.9010 c         1 MOL      0.819277
     13 O3         -5.3690    2.1670    2.1530 o         1 MOL     -0.670470
     14 O4         -3.5450    2.1880    0.8250 o         1 MOL     -0.670470
     15 H4         -1.6000    3.7770    4.8060 hn        1 MOL      0.346096
     16 H5         -1.4380    2.7330    2.2350 h1        1 MOL      0.185111
     17 H6         -3.8860    4.0440    3.5560 hc        1 MOL      0.093002
     18 H7         -3.3740    2.4450    3.8500 hc        1 MOL      0.093002
     19 N2         -1.9470    4.4780    0.4030 n         1 MOL     -0.642836
     20 C7         -2.0600    5.4480   -0.7280 c3        1 MOL      0.478599
     21 C8         -3.0610    5.0440   -1.8450 c         1 MOL      0.332988
     22 O5         -3.0820    5.7070   -2.8850 o         1 MOL     -0.521332
     23 C9         -0.6850    5.7850   -1.2050 c3        1 MOL     -0.208577
     24 H8         -1.7830    3.5050    0.1820 hn        1 MOL      0.338851
     25 H9         -2.4480    6.3590   -0.2640 h1        1 MOL     -0.034189
     26 H10        -0.1400    4.9510   -1.6470 hc        1 MOL      0.043063
     27 H11        -0.8520    6.4610   -2.0440 hc        1 MOL      0.043063
     28 H12        -0.1600    6.3370   -0.4250 hc        1 MOL      0.043063
     29 N3         -3.7280    3.8410   -1.7760 n         1 MOL     -0.388811
     30 C10        -4.5610    3.3050   -2.8720 c3        1 MOL      0.313770
     31 C11        -5.9010    2.6490   -2.4660 c         1 MOL      0.240058
     32 O6         -6.8200    2.6680   -3.1960 o         1 MOL     -0.518861
     33 C12        -3.8060    2.3430   -3.7880 c3        1 MOL     -0.260214
     34 C13        -3.0580    1.2440   -3.1230 c         1 MOL      0.749743
     35 O7         -1.8910    1.0810   -3.4720 o         1 MOL     -0.692328
     36 O8         -3.5130    0.6590   -2.1290 o         1 MOL     -0.692328
     37 H13        -3.4160    3.2520   -1.0230 hn        1 MOL      0.225461
     38 H14        -4.7800    4.1480   -3.5300 h1        1 MOL      0.026104
     39 H15        -3.0800    2.9700   -4.3180 hc        1 MOL      0.048057
     40 H16        -4.4380    1.8350   -4.5050 hc        1 MOL      0.048057
     41 N4         -5.9880    2.2300   -1.2130 n         1 MOL      0.038810
     42 C14        -7.1700    1.5710   -0.6510 c3        1 MOL     -0.433339
     43 C15        -7.2580    0.1370   -1.0740 c         1 MOL      0.525638
     44 O9         -8.4140   -0.3790   -0.8920 o         1 MOL     -0.618931
     45 H17        -5.1600    2.3370   -0.6450 hn        1 MOL     -0.051707
     46 H18        -8.0030    2.0140   -1.2080 h1        1 MOL      0.185821
     47 H19        -7.2130    1.7450    0.4250 h1        1 MOL      0.185821
     48 N5         -6.2210   -0.5430   -1.6090 n         1 MOL     -0.156446
     49 C16        -6.2980   -1.8460   -2.2430 c3        1 MOL      0.014721
     50 C17        -6.5540   -3.0530   -1.3160 c         1 MOL      0.363152
     51 O10        -6.3220   -4.2010   -1.7450 o         1 MOL     -0.510875
     52 C18        -5.0480   -2.0440   -3.1320 c3        1 MOL     -0.163367
     53 C19        -3.7350   -2.2140   -2.4400 c         1 MOL      0.578644
     54 N6         -2.6990   -2.4120   -3.2270 n         1 MOL     -0.636536
     55 O11        -3.6260   -2.1030   -1.1880 o         1 MOL     -0.371487
     56 H20        -5.3270   -0.0800   -1.6860 hn        1 MOL      0.185658
     57 H21        -7.1920   -1.6860   -2.8430 h1        1 MOL      0.071607
     58 H22        -4.9730   -1.1470   -3.7500 hc        1 MOL      0.046908
     59 H23        -5.2280   -2.8910   -3.7990 hc        1 MOL      0.046908
     60 H24        -2.8160   -2.3340   -4.2290 hn        1 MOL      0.327463
     61 H25        -1.7370   -2.4480   -2.9110 hn        1 MOL      0.327463
     62 N7         -6.6420   -2.7810   -0.0220 n         1 MOL     -0.237603
     63 C20        -6.5910   -3.8240    1.0450 c3        1 MOL     -0.171993
     64 C21        -5.2460   -4.1930    1.7170 c         1 MOL      0.502560
     65 O12        -5.2240   -4.7970    2.7930 o         1 MOL     -0.575109
     66 H26        -6.8540   -1.8410    0.2790 hn        1 MOL      0.237083
     67 H27        -7.0050   -4.7030    0.5490 h1        1 MOL      0.102805
     68 H28        -7.3160   -3.5210    1.8020 h1        1 MOL      0.102805
     69 N8         -4.1220   -3.8370    1.0840 n         1 MOL     -0.149001
     70 C22        -2.7850   -4.3860    1.4560 c3        1 MOL     -0.320693
     71 C23        -1.5900   -3.3780    1.4730 c         1 MOL      0.601598
     72 O13        -1.5420   -2.4420    0.7180 o         1 MOL     -0.625197
     73 C24        -2.3870   -5.4550    0.4670 c3        1 MOL      0.720498
     74 C25        -3.1340   -6.7920    0.6340 c3        1 MOL     -0.496018
     75 O14        -2.5830   -4.9690   -0.8380 oh        1 MOL     -0.666006
     76 H29        -4.2240   -3.2880    0.2350 hn        1 MOL      0.149191
     77 H30        -2.7590   -4.8790    2.4340 h1        1 MOL      0.115013
     78 H31        -1.3280   -5.6850    0.5900 h1        1 MOL     -0.075430
     79 H32        -2.7010   -4.0130   -0.9040 ho        1 MOL      0.321644
     80 H33        -4.0350   -6.7720    0.0190 hc        1 MOL      0.110437
     81 H34        -2.4680   -7.6000    0.3510 hc        1 MOL      0.110437
     82 H35        -3.3710   -6.8570    1.7000 hc        1 MOL      0.110437
     83 N9         -0.5650   -3.6530    2.2670 n         1 MOL     -0.528928
     84 C26         0.6790   -2.8030    2.2090 c3        1 MOL     -0.079886
     85 C27         1.4760   -3.1510    0.9610 c         1 MOL      0.728320
     86 O15         1.9260   -4.2500    0.7920 o         1 MOL     -0.591217
     87 C28         1.4140   -2.9030    3.5550 c3        1 MOL      0.142219
     88 C29         0.5210   -2.5890    4.7800 c3        1 MOL      0.187446
     89 C30         2.6510   -1.9130    3.4970 c3        1 MOL     -0.266513
     90 C31         1.2410   -2.5300    6.1330 c3        1 MOL     -0.309744
     91 H36        -0.6360   -4.5690    2.6870 hn        1 MOL      0.276522
     92 H37         0.3290   -1.7780    2.1660 h1        1 MOL      0.080110
     93 H38         1.9070   -3.8710    3.6460 hc        1 MOL     -0.021878
     94 H39        -0.2780   -3.3280    4.8130 hc        1 MOL     -0.032970
     95 H40         0.0390   -1.6400    4.5760 hc        1 MOL     -0.032970
     96 H41         3.2950   -2.1560    4.3370 hc        1 MOL      0.052148
     97 H42         3.2520   -2.0420    2.6030 hc        1 MOL      0.052148
     98 H43         2.2610   -0.9210    3.6990 hc        1 MOL      0.052148
     99 H44         1.7650   -1.5740    6.1280 hc        1 MOL      0.068264
    100 H45         0.4950   -2.6180    6.9350 hc        1 MOL      0.068264
    101 H46         1.9670   -3.3370    6.2310 hc        1 MOL      0.068264
    102 N10         1.7220   -2.0750    0.1530 n         1 MOL     -0.499735
    103 C32         2.4860   -2.1040   -1.1310 c3        1 MOL      0.102590
    104 C33         3.9640   -1.8450   -0.8550 c         1 MOL      0.499907
    105 O16         4.3300   -1.4910    0.2360 o         1 MOL     -0.426468
    106 C34         1.8590   -1.1190   -2.1560 c3        1 MOL     -0.296439
    107 C35         0.4100   -1.4570   -2.3100 c         1 MOL      0.763883
    108 O17         0.1510   -2.3580   -3.1830 o         1 MOL     -0.683113
    109 O18        -0.4300   -0.8590   -1.6100 o         1 MOL     -0.683113
    110 H47         1.4110   -1.1700    0.4600 hn        1 MOL      0.395342
    111 H48         2.4100   -3.1180   -1.5140 h1        1 MOL      0.065678
    112 H49         2.4110   -1.4100   -3.0550 hc        1 MOL      0.059489
    113 H50         2.0300   -0.1010   -1.8000 hc        1 MOL      0.059489
    114 N11         4.8830   -1.9280   -1.8490 n         1 MOL     -0.703157
    115 C36         6.3300   -1.6800   -1.5330 c3        1 MOL      0.455231
    116 C37         6.7830   -0.1880   -1.1710 c         1 MOL      0.248691
    117 O19         7.3850    0.0560   -0.1170 o         1 MOL     -0.507605
    118 C38         7.3120   -2.1800   -2.6170 c3        1 MOL     -0.411411
    119 C39         8.7790   -2.0220   -2.1580 ca        1 MOL      0.124422
    120 C40         9.6410   -1.4680   -3.0750 ca        1 MOL     -0.097746
    121 C41         9.2610   -2.4750   -0.9000 ca        1 MOL     -0.097746
    122 C42        11.0160   -1.3440   -2.7730 ca        1 MOL     -0.222561
    123 C43        10.6750   -2.3690   -0.6170 ca        1 MOL     -0.222561
    124 C44        11.4910   -1.6660   -1.5000 ca        1 MOL      0.001081
    125 H51         4.5470   -2.1710   -2.7740 hn        1 MOL      0.353697
    126 H52         6.4760   -2.2370   -0.6020 h1        1 MOL      0.050602
    127 H53         7.1250   -1.6550   -3.5520 hc        1 MOL      0.109735
    128 H54         7.2220   -3.2550   -2.8040 hc        1 MOL      0.109735
    129 H55         9.3120   -0.9190   -3.9430 ha        1 MOL      0.109435
    130 H56         8.6750   -2.8360   -0.0660 ha        1 MOL      0.109435
    131 H57        11.6230   -0.7620   -3.4620 ha        1 MOL      0.129478
    132 H58        11.0140   -2.5170    0.3980 ha        1 MOL      0.129478
    133 H59        12.5070   -1.4290   -1.2130 ha        1 MOL      0.075571
    134 N12         6.3390    0.8540   -1.7900 n         1 MOL      0.044150
    135 C45         6.6280    2.2380   -1.4420 c3        1 MOL     -0.162860
    136 C46         5.8550    2.6570   -0.1920 c         1 MOL      0.556608
    137 O20         6.3050    3.5970    0.4280 o         1 MOL     -0.527826
    138 C47         6.2320    3.0150   -2.7330 c3        1 MOL     -0.056406
    139 C48         5.1950    2.2270   -3.4660 c3        1 MOL      0.031723
    140 C49         5.4870    0.7380   -2.9910 c3        1 MOL     -0.105640
    141 H60         7.6480    2.4650   -1.1200 h1        1 MOL      0.101591
    142 H61         5.7850    3.9840   -2.5220 hc        1 MOL      0.038953
    143 H62         7.1480    3.1700   -3.3140 hc        1 MOL      0.038953
    144 H63         4.1780    2.5090   -3.1950 hc        1 MOL      0.018434
    145 H64         5.3710    2.3800   -4.5350 hc        1 MOL      0.018434
    146 H65         4.4910    0.3590   -2.7660 h1        1 MOL      0.039966
    147 H66         6.0870    0.2180   -3.7390 h1        1 MOL      0.039966
    148 N13         4.7200    2.0520    0.1190 n         1 MOL     -0.393302
    149 C50         4.1810    2.3010    1.4800 c3        1 MOL     -0.086746
    150 C51         4.9960    1.6450    2.6090 c         1 MOL      0.409511
    151 O21         5.2720    2.3350    3.5810 o         1 MOL     -0.540281
    152 C52         2.8340    1.7070    1.5250 c3        1 MOL     -0.182383
    153 C53         1.8610    2.2350    0.4670 c3        1 MOL     -0.006418
    154 C54         0.4810    1.5690    0.6080 c         1 MOL      0.462135
    155 O22        -0.5110    1.9850   -0.0620 o         1 MOL     -0.684838
    156 O23         0.1910    0.6410    1.3570 o         1 MOL     -0.684838
    157 H67         4.3620    1.2860   -0.4280 hn        1 MOL      0.374731
    158 H68         3.9180    3.3400    1.6510 h1        1 MOL      0.136476
    159 H69         2.4220    1.8640    2.5200 hc        1 MOL      0.090778
    160 H70         2.8110    0.6450    1.2950 hc        1 MOL      0.090778
    161 H71         2.2060    2.0350   -0.5480 hc        1 MOL      0.049329
    162 H72         1.6680    3.3070    0.5650 hc        1 MOL      0.049329
    163 N14         5.5360    0.4600    2.4330 n         1 MOL     -0.010869
    164 C55         6.3200   -0.2770    3.3950 c3        1 MOL     -0.230339
    165 H73         6.4270    0.3130    4.3050 h1        1 MOL      0.084863
    166 H74         5.8190   -1.2170    3.6300 h1        1 MOL      0.084863
    167 H75         7.3060   -0.4840    2.9790 h1        1 MOL      0.084863
    168 H76         5.3120   -0.0480    1.5940 hn        1 MOL      0.090293
    169 Ca1        -2.1940   -0.0270   -0.0500 Ca        1 MOL      1.692991
    170 O24        -1.8570    0.2890    2.7420 oh        1 MOL     -0.828221
    171 H77        -1.5870    0.1480    3.6570 ho        1 MOL      0.384158
    172 H78        -1.0520    0.5890    2.3010 ho        1 MOL      0.384158
    173 O25        -4.5240   -0.4030    1.3250 oh        1 MOL     -0.828221
    174 H79        -5.0420   -0.9200    1.9370 ho        1 MOL      0.384158
    175 H80        -4.8710    0.4810    1.4020 ho        1 MOL      0.384158
@<TRIPOS>BOND
     1    1    2 1   
     2    1    4 1   
     3    1    5 1   
     4    1    6 1   
     5    2    3 2   
     6    2    7 1   
     7    7    8 1   
     8    7   15 1   
     9    8    9 1   
    10    8   11 1   
    11    8   16 1   
    12    9   10 2   
    13    9   19 1   
    14   11   12 1   
    15   11   17 1   
    16   11   18 1   
    17   12   13 1   
    18   12   14 1   
    19   19   20 1   
    20   19   24 1   
    21   20   21 1   
    22   20   23 1   
    23   20   25 1   
    24   21   22 2   
    25   21   29 1   
    26   23   26 1   
    27   23   27 1   
    28   23   28 1   
    29   29   30 1   
    30   29   37 1   
    31   30   31 1   
    32   30   33 1   
    33   30   38 1   
    34   31   32 2   
    35   31   41 1   
    36   33   34 1   
    37   33   39 1   
    38   33   40 1   
    39   34   35 1   
    40   34   36 1   
    41   41   42 1   
    42   41   45 1   
    43   42   43 1   
    44   42   46 1   
    45   42   47 1   
    46   43   44 2   
    47   43   48 1   
    48   48   49 1   
    49   48   56 1   
    50   49   50 1   
    51   49   52 1   
    52   49   57 1   
    53   50   51 2   
    54   50   62 1   
    55   52   53 1   
    56   52   58 1   
    57   52   59 1   
    58   53   54 1   
    59   53   55 2   
    60   54   60 1   
    61   54   61 1   
    62   62   63 1   
    63   62   66 1   
    64   63   64 1   
    65   63   67 1   
    66   63   68 1   
    67   64   65 2   
    68   64   69 1   
    69   69   70 1   
    70   69   76 1   
    71   70   71 1   
    72   70   73 1   
    73   70   77 1   
    74   71   72 2   
    75   71   83 1   
    76   73   74 1   
    77   73   75 1   
    78   73   78 1   
    79   74   80 1   
    80   74   81 1   
    81   74   82 1   
    82   75   79 1   
    83   83   84 1   
    84   83   91 1   
    85   84   85 1   
    86   84   87 1   
    87   84   92 1   
    88   85   86 2   
    89   85  102 1   
    90   87   88 1   
    91   87   89 1   
    92   87   93 1   
    93   88   90 1   
    94   88   94 1   
    95   88   95 1   
    96   89   96 1   
    97   89   97 1   
    98   89   98 1   
    99   90   99 1   
   100   90  100 1   
   101   90  101 1   
   102  102  103 1   
   103  102  110 1   
   104  103  104 1   
   105  103  106 1   
   106  103  111 1   
   107  104  105 2   
   108  104  114 1   
   109  106  107 1   
   110  106  112 1   
   111  106  113 1   
   112  107  108 1   
   113  107  109 1   
   114  114  115 1   
   115  114  125 1   
   116  115  116 1   
   117  115  118 1   
   118  115  126 1   
   119  116  117 2   
   120  116  134 1   
   121  118  119 1   
   122  118  127 1   
   123  118  128 1   
   124  119  120 ar  
   125  119  121 ar  
   126  120  122 ar  
   127  120  129 1   
   128  121  123 ar  
   129  121  130 1   
   130  122  124 ar  
   131  122  131 1   
   132  123  124 ar  
   133  123  132 1   
   134  124  133 1   
   135  134  135 1   
   136  134  140 1   
   137  135  136 1   
   138  135  138 1   
   139  135  141 1   
   140  136  137 2   
   141  136  148 1   
   142  138  139 1   
   143  138  142 1   
   144  138  143 1   
   145  139  140 1   
   146  139  144 1   
   147  139  145 1   
   148  140  146 1   
   149  140  147 1   
   150  148  149 1   
   151  148  157 1   
   152  149  150 1   
   153  149  152 1   
   154  149  158 1   
   155  150  151 2   
   156  150  163 1   
   157  152  153 1   
   158  152  159 1   
   159  152  160 1   
   160  153  154 1   
   161  153  161 1   
   162  153  162 1   
   163  154  155 1   
   164  154  156 1   
   165  163  164 1   
   166  163  168 1   
   167  164  165 1   
   168  164  166 1   
   169  164  167 1   
   170  170  171 1   
   171  170  172 1   
   172  173  174 1   
   173  173  175 1   
@<TRIPOS>SUBSTRUCTURE
     1 MOL         1 TEMP              0 ****  ****    0 ROOT
