@<TRIPOS>MOLECULE
MOL
  175   173     1     0     0
SMALL
resp


@<TRIPOS>ATOM
      1 C1          0.8330    3.8830    5.3310 c3        1 MOL     -0.397248
      2 C2          0.0950    3.8390    4.0200 c         1 MOL      0.749358
      3 O1          0.7520    3.9230    3.0040 o         1 MOL     -0.538308
      4 H1          1.7420    4.4740    5.2170 hc        1 MOL      0.097388
      5 H2          0.1980    4.3370    6.0910 hc        1 MOL      0.097388
      6 H3          1.0970    2.8690    5.6360 hc        1 MOL      0.097388
      7 N1         -1.2550    3.5930    3.9860 n         1 MOL     -0.757670
      8 C3         -2.0530    3.3850    2.7560 c3        1 MOL      0.309337
      9 C4         -2.1290    4.6570    1.9390 c         1 MOL      0.479599
     10 O2         -2.3310    5.7780    2.4340 o         1 MOL     -0.557614
     11 C5         -3.3970    2.7770    3.0310 c3        1 MOL     -0.247787
     12 C6         -4.1590    2.6270    1.7650 c         1 MOL      0.583043
     13 O3         -5.2120    3.2290    1.5340 o         1 MOL     -0.577422
     14 O4         -3.6980    1.7900    0.8990 o         1 MOL     -0.577422
     15 H4         -1.7230    3.6210    4.8800 hn        1 MOL      0.343227
     16 H5         -1.6340    2.5640    2.1780 h1        1 MOL      0.050515
     17 H6         -3.9510    3.3820    3.7480 hc        1 MOL      0.046442
     18 H7         -3.2970    1.7750    3.4640 hc        1 MOL      0.046442
     19 N2         -2.0760    4.4990    0.6070 n         1 MOL     -0.258874
     20 C7         -2.3170    5.5750   -0.3820 c3        1 MOL      0.119736
     21 C8         -3.1800    5.1030   -1.5800 c         1 MOL      0.401963
     22 O5         -3.4310    5.8290   -2.5550 o         1 MOL     -0.556243
     23 C9         -0.9280    6.0340   -0.7970 c3        1 MOL     -0.245949
     24 H8         -1.8320    3.6180    0.1850 hn        1 MOL      0.149175
     25 H9         -2.7700    6.3940    0.1680 h1        1 MOL      0.055389
     26 H10        -0.3230    6.3660    0.0490 hc        1 MOL      0.067811
     27 H11        -0.4140    5.2080   -1.2720 hc        1 MOL      0.067811
     28 H12        -0.8690    6.8340   -1.5420 hc        1 MOL      0.067811
     29 N3         -3.7140    3.8450   -1.5770 n         1 MOL      0.068113
     30 C10        -4.6900    3.4620   -2.6050 c3        1 MOL     -0.322309
     31 C11        -5.9420    2.6240   -2.2110 c         1 MOL      0.565466
     32 O6         -6.8190    2.4560   -3.0780 o         1 MOL     -0.579119
     33 C12        -4.0040    2.6870   -3.7270 c3        1 MOL      0.124307
     34 C13        -3.5720    1.2320   -3.3570 c         1 MOL      0.530059
     35 O7         -3.7980    0.8950   -2.1710 o         1 MOL     -0.645229
     36 O8         -3.0570    0.5900   -4.2990 o         1 MOL     -0.645229
     37 H13        -3.6960    3.2640   -0.7530 hn        1 MOL     -0.063129
     38 H14        -5.0820    4.3640   -3.0800 h1        1 MOL      0.131833
     39 H15        -3.0990    3.1980   -4.0690 hc        1 MOL     -0.005018
     40 H16        -4.6310    2.5970   -4.6090 hc        1 MOL     -0.005018
     41 N4         -6.1500    2.1810   -0.9670 n         1 MOL     -0.209737
     42 C14        -7.3110    1.4480   -0.4850 c3        1 MOL     -0.197186
     43 C15        -7.2770   -0.0070   -0.8000 c         1 MOL      0.590864
     44 O9         -8.2520   -0.6740   -0.3720 o         1 MOL     -0.616731
     45 H17        -5.4590    2.3270   -0.2410 hn        1 MOL      0.154717
     46 H18        -8.2540    1.9040   -0.8210 h1        1 MOL      0.104393
     47 H19        -7.2930    1.5170    0.5970 h1        1 MOL      0.104393
     48 N5         -6.2890   -0.5650   -1.5980 n         1 MOL     -0.344763
     49 C16        -6.3120   -1.8920   -2.0880 c3        1 MOL      0.161393
     50 C17        -6.4490   -3.0360   -1.0280 c         1 MOL      0.430506
     51 O10        -6.7220   -4.1770   -1.3980 o         1 MOL     -0.530520
     52 C18        -5.1160   -2.0220   -3.0860 c3        1 MOL     -0.300447
     53 C19        -3.7870   -2.3810   -2.4350 c         1 MOL      0.792163
     54 N6         -2.7840   -2.6760   -3.1660 n         1 MOL     -0.685893
     55 O11        -3.6710   -2.4110   -1.2190 o         1 MOL     -0.779671
     56 H20        -5.5430   -0.0170   -1.9900 hn        1 MOL      0.183233
     57 H21        -7.2430   -1.9690   -2.6390 h1        1 MOL      0.041969
     58 H22        -5.1350   -1.0660   -3.6040 hc        1 MOL      0.100735
     59 H23        -5.4290   -2.7660   -3.8200 hc        1 MOL      0.100735
     60 H24        -2.8890   -2.7770   -4.1650 hn        1 MOL      0.351035
     61 H25        -1.8970   -2.5830   -2.7000 hn        1 MOL      0.351035
     62 N7         -6.3390   -2.7450    0.3550 n         1 MOL     -0.181506
     63 C20        -6.3590   -3.7110    1.4990 c3        1 MOL     -0.271348
     64 C21        -5.0130   -4.3870    1.8230 c         1 MOL      0.534086
     65 O12        -4.9450   -5.3310    2.6190 o         1 MOL     -0.587401
     66 H26        -6.1260   -1.7920    0.5900 hn        1 MOL      0.171968
     67 H27        -7.1380   -4.4420    1.2900 h1        1 MOL      0.125101
     68 H28        -6.6690   -3.1540    2.3780 h1        1 MOL      0.125101
     69 N8         -3.8910   -3.9840    1.2240 n         1 MOL     -0.173293
     70 C22        -2.5830   -4.5750    1.4610 c3        1 MOL     -0.241044
     71 C23        -1.4520   -3.5660    1.4700 c         1 MOL      0.523013
     72 O13        -1.6090   -2.5180    0.8000 o         1 MOL     -0.563127
     73 C24        -2.1990   -5.5340    0.3270 c3        1 MOL      0.622251
     74 C25        -2.7640   -6.9630    0.2990 c3        1 MOL     -0.508810
     75 O14        -2.5100   -5.0180   -0.9180 oh        1 MOL     -0.615124
     76 H29        -3.9150   -3.2470    0.5330 hn        1 MOL      0.240033
     77 H30        -2.5150   -5.0640    2.4310 h1        1 MOL      0.109568
     78 H31        -1.1200   -5.6630    0.3730 h1        1 MOL     -0.052026
     79 H32        -2.7710   -4.1150   -0.6970 ho        1 MOL      0.364875
     80 H33        -2.4230   -7.3970    1.2380 hc        1 MOL      0.114826
     81 H34        -3.8490   -6.8450    0.3620 hc        1 MOL      0.114826
     82 H35        -2.3210   -7.3830   -0.6100 hc        1 MOL      0.114826
     83 N9         -0.3550   -3.7850    2.2260 n         1 MOL     -0.612242
     84 C26         0.8510   -2.8970    2.1380 c3        1 MOL     -0.013145
     85 C27         1.5040   -3.0180    0.7290 c         1 MOL      0.681045
     86 O15         1.9340   -4.0900    0.3330 o         1 MOL     -0.619151
     87 C28         1.8560   -3.0710    3.3320 c3        1 MOL      0.086983
     88 C29         1.0840   -3.0450    4.6070 c3        1 MOL      0.279272
     89 C30         2.9480   -1.9460    3.3030 c3        1 MOL     -0.228387
     90 C31         1.9490   -3.2990    5.8720 c3        1 MOL     -0.200617
     91 H36        -0.4280   -4.6000    2.8210 hn        1 MOL      0.322929
     92 H37         0.5440   -1.8500    2.1330 h1        1 MOL      0.156794
     93 H38         2.3960   -4.0100    3.2370 hc        1 MOL     -0.001150
     94 H39         0.4280   -3.9170    4.5970 hc        1 MOL     -0.069164
     95 H40         0.4690   -2.1530    4.6840 hc        1 MOL     -0.069164
     96 H41         3.5100   -2.0000    2.3770 hc        1 MOL      0.046011
     97 H42         2.5760   -0.9610    3.5990 hc        1 MOL      0.046011
     98 H43         3.6590   -2.1030    4.1160 hc        1 MOL      0.046011
     99 H44         2.6110   -2.4740    6.1290 hc        1 MOL      0.033215
    100 H45         1.2600   -3.4290    6.7030 hc        1 MOL      0.033215
    101 H46         2.4340   -4.2760    5.7700 hc        1 MOL      0.033215
    102 N10         1.7430   -1.9120    0.0360 n         1 MOL     -0.285761
    103 C32         2.4760   -1.8550   -1.2580 c3        1 MOL      0.081309
    104 C33         3.9420   -1.3150   -0.9480 c         1 MOL      0.324006
    105 O16         4.1470   -0.6040    0.0420 o         1 MOL     -0.138686
    106 C34         1.8790   -0.7740   -2.2020 c3        1 MOL     -0.285466
    107 C35         0.4930   -1.2000   -2.7790 c         1 MOL      0.655001
    108 O17        -0.6010   -1.1410   -2.0980 o         1 MOL     -0.637280
    109 O18         0.4680   -1.5650   -3.9920 o         1 MOL     -0.637280
    110 H47         1.5040   -1.0670    0.5300 hn        1 MOL     -0.040999
    111 H48         2.5500   -2.8150   -1.7720 h1        1 MOL      0.097473
    112 H49         2.6130   -0.5900   -2.9940 hc        1 MOL      0.094772
    113 H50         1.8290    0.1730   -1.6770 hc        1 MOL      0.094772
    114 N11         4.9450   -1.5500   -1.7510 n         1 MOL     -0.601827
    115 C36         6.4300   -1.3930   -1.5070 c3        1 MOL      0.275224
    116 C37         6.8030    0.0460   -1.0710 c         1 MOL      0.395881
    117 O19         7.5170    0.1340   -0.0720 o         1 MOL     -0.522189
    118 C38         7.2090   -1.7740   -2.7290 c3        1 MOL     -0.036056
    119 C39         8.6800   -1.9550   -2.4070 ca        1 MOL     -0.056383
    120 C40         9.5950   -0.8550   -2.5910 ca        1 MOL     -0.090270
    121 C41         9.1730   -3.1610   -1.8630 ca        1 MOL     -0.090270
    122 C42        10.9460   -0.9270   -2.2250 ca        1 MOL     -0.161986
    123 C43        10.5450   -3.2430   -1.5170 ca        1 MOL     -0.161986
    124 C44        11.4020   -2.1100   -1.6050 ca        1 MOL     -0.049429
    125 H51         4.7030   -1.9360   -2.6560 hn        1 MOL      0.323305
    126 H52         6.8400   -2.0850   -0.7750 h1        1 MOL      0.055012
    127 H53         7.1220   -1.0400   -3.5200 hc        1 MOL      0.031056
    128 H54         6.7890   -2.6300   -3.2560 hc        1 MOL      0.031056
    129 H55         9.2050    0.0660   -3.0120 ha        1 MOL      0.103801
    130 H56         8.5500   -4.0110   -1.6430 ha        1 MOL      0.103801
    131 H57        11.5770   -0.0590   -2.3470 ha        1 MOL      0.122421
    132 H58        10.8930   -4.2120   -1.1890 ha        1 MOL      0.122421
    133 H59        12.4510   -2.1830   -1.3670 ha        1 MOL      0.084684
    134 N12         6.3500    1.1620   -1.6900 n         1 MOL     -0.044338
    135 C45         6.5950    2.5800   -1.2490 c3        1 MOL      0.008706
    136 C46         5.7990    2.8790    0.0390 c         1 MOL      0.310125
    137 O20         6.3030    3.6840    0.8410 o         1 MOL     -0.482236
    138 C47         6.1460    3.5510   -2.3580 c3        1 MOL     -0.214342
    139 C48         5.1640    2.6940   -3.1280 c3        1 MOL      0.005820
    140 C49         5.7270    1.2730   -2.9850 c3        1 MOL      0.013189
    141 H60         7.6650    2.6800   -1.0560 h1        1 MOL      0.079255
    142 H61         5.7600    4.4760   -1.9290 hc        1 MOL      0.090923
    143 H62         7.0700    3.7440   -2.9140 hc        1 MOL      0.090923
    144 H63         4.1820    2.7820   -2.6710 hc        1 MOL      0.035722
    145 H64         5.0830    2.9440   -4.1880 hc        1 MOL      0.035722
    146 H65         4.9930    0.4830   -3.1760 h1        1 MOL     -0.001749
    147 H66         6.4840    1.1470   -3.7620 h1        1 MOL     -0.001749
    148 N13         4.6390    2.2160    0.3850 n         1 MOL     -0.078933
    149 C50         4.0570    2.3030    1.6380 c3        1 MOL     -0.124879
    150 C51         4.8790    1.5730    2.6700 c         1 MOL      0.374919
    151 O21         5.1840    2.1630    3.6820 o         1 MOL     -0.531672
    152 C52         2.5570    1.8450    1.5340 c3        1 MOL      0.036525
    153 C53         1.7260    2.3750    0.3380 c3        1 MOL     -0.065579
    154 C54         0.4110    1.6070    0.3160 c         1 MOL      0.678023
    155 O22        -0.5570    2.0790   -0.3010 o         1 MOL     -0.725844
    156 O23         0.3720    0.4570    0.7970 o         1 MOL     -0.725844
    157 H67         4.3640    1.4040   -0.1410 hn        1 MOL      0.090368
    158 H68         3.9580    3.3480    1.9160 h1        1 MOL      0.112547
    159 H69         2.0640    2.0320    2.4870 hc        1 MOL      0.034179
    160 H70         2.6110    0.7630    1.4280 hc        1 MOL      0.034179
    161 H71         2.2600    2.1970   -0.5980 hc        1 MOL      0.027605
    162 H72         1.6810    3.4350    0.5780 hc        1 MOL      0.027605
    163 N14         5.5330    0.4090    2.3620 n         1 MOL      0.077558
    164 C55         6.4230   -0.3300    3.3420 c3        1 MOL     -0.257224
    165 H73         7.3700    0.2000    3.4420 h1        1 MOL      0.087784
    166 H74         5.9310   -0.3800    4.3130 h1        1 MOL      0.087784
    167 H75         6.6090   -1.3390    2.9760 h1        1 MOL      0.087784
    168 H76         5.3470    0.0070    1.4610 hn        1 MOL     -0.042185
    169 Ca1        -2.1890   -0.0950   -0.3020 Ca        1 MOL      1.704091
    170 O24        -1.5150   -0.0510    2.7760 oh        1 MOL     -0.780646
    171 H77        -0.5800    0.0440    2.5890 ho        1 MOL      0.383923
    172 H78        -1.5970    0.0770    3.7160 ho        1 MOL      0.383923
    173 O25        -4.4070   -0.8150    1.4650 oh        1 MOL     -0.780646
    174 H79        -4.9730   -1.0470    2.1970 ho        1 MOL      0.383923
    175 H80        -4.2560    0.1180    1.5670 ho        1 MOL      0.383923
@<TRIPOS>BOND
     1    1    2 1   
     2    1    4 1   
     3    1    5 1   
     4    1    6 1   
     5    2    3 2   
     6    2    7 1   
     7    7    8 1   
     8    7   15 1   
     9    8    9 1   
    10    8   11 1   
    11    8   16 1   
    12    9   10 2   
    13    9   19 1   
    14   11   12 1   
    15   11   17 1   
    16   11   18 1   
    17   12   13 1   
    18   12   14 1   
    19   19   20 1   
    20   19   24 1   
    21   20   21 1   
    22   20   23 1   
    23   20   25 1   
    24   21   22 2   
    25   21   29 1   
    26   23   26 1   
    27   23   27 1   
    28   23   28 1   
    29   29   30 1   
    30   29   37 1   
    31   30   31 1   
    32   30   33 1   
    33   30   38 1   
    34   31   32 2   
    35   31   41 1   
    36   33   34 1   
    37   33   39 1   
    38   33   40 1   
    39   34   35 1   
    40   34   36 1   
    41   41   42 1   
    42   41   45 1   
    43   42   43 1   
    44   42   46 1   
    45   42   47 1   
    46   43   44 2   
    47   43   48 1   
    48   48   49 1   
    49   48   56 1   
    50   49   50 1   
    51   49   52 1   
    52   49   57 1   
    53   50   51 2   
    54   50   62 1   
    55   52   53 1   
    56   52   58 1   
    57   52   59 1   
    58   53   54 1   
    59   53   55 2   
    60   54   60 1   
    61   54   61 1   
    62   62   63 1   
    63   62   66 1   
    64   63   64 1   
    65   63   67 1   
    66   63   68 1   
    67   64   65 2   
    68   64   69 1   
    69   69   70 1   
    70   69   76 1   
    71   70   71 1   
    72   70   73 1   
    73   70   77 1   
    74   71   72 2   
    75   71   83 1   
    76   73   74 1   
    77   73   75 1   
    78   73   78 1   
    79   74   80 1   
    80   74   81 1   
    81   74   82 1   
    82   75   79 1   
    83   83   84 1   
    84   83   91 1   
    85   84   85 1   
    86   84   87 1   
    87   84   92 1   
    88   85   86 2   
    89   85  102 1   
    90   87   88 1   
    91   87   89 1   
    92   87   93 1   
    93   88   90 1   
    94   88   94 1   
    95   88   95 1   
    96   89   96 1   
    97   89   97 1   
    98   89   98 1   
    99   90   99 1   
   100   90  100 1   
   101   90  101 1   
   102  102  103 1   
   103  102  110 1   
   104  103  104 1   
   105  103  106 1   
   106  103  111 1   
   107  104  105 2   
   108  104  114 1   
   109  106  107 1   
   110  106  112 1   
   111  106  113 1   
   112  107  108 1   
   113  107  109 1   
   114  114  115 1   
   115  114  125 1   
   116  115  116 1   
   117  115  118 1   
   118  115  126 1   
   119  116  117 2   
   120  116  134 1   
   121  118  119 1   
   122  118  127 1   
   123  118  128 1   
   124  119  120 ar  
   125  119  121 ar  
   126  120  122 ar  
   127  120  129 1   
   128  121  123 ar  
   129  121  130 1   
   130  122  124 ar  
   131  122  131 1   
   132  123  124 ar  
   133  123  132 1   
   134  124  133 1   
   135  134  135 1   
   136  134  140 1   
   137  135  136 1   
   138  135  138 1   
   139  135  141 1   
   140  136  137 2   
   141  136  148 1   
   142  138  139 1   
   143  138  142 1   
   144  138  143 1   
   145  139  140 1   
   146  139  144 1   
   147  139  145 1   
   148  140  146 1   
   149  140  147 1   
   150  148  149 1   
   151  148  157 1   
   152  149  150 1   
   153  149  152 1   
   154  149  158 1   
   155  150  151 2   
   156  150  163 1   
   157  152  153 1   
   158  152  159 1   
   159  152  160 1   
   160  153  154 1   
   161  153  161 1   
   162  153  162 1   
   163  154  155 1   
   164  154  156 1   
   165  163  164 1   
   166  163  168 1   
   167  164  165 1   
   168  164  166 1   
   169  164  167 1   
   170  170  171 1   
   171  170  172 1   
   172  173  174 1   
   173  173  175 1   
@<TRIPOS>SUBSTRUCTURE
     1 MOL         1 TEMP              0 ****  ****    0 ROOT
