@<TRIPOS>MOLECULE
MOL
  179   176     1     0     0
SMALL
resp


@<TRIPOS>ATOM
      1 C1          1.6380    3.3070    5.3240 c3        1 MOL     -0.271795
      2 C2          0.9870    3.0530    3.9740 c         1 MOL      0.755453
      3 O1          1.6530    3.0720    2.9070 o         1 MOL     -0.627855
      4 H1          2.6640    3.6420    5.1760 hc        1 MOL      0.075334
      5 H2          1.0800    4.0750    5.8600 hc        1 MOL      0.075334
      6 H3          1.6380    2.3850    5.9070 hc        1 MOL      0.075334
      7 N1         -0.4100    2.9520    3.9110 n         1 MOL     -0.735336
      8 C3         -1.1090    2.5330    2.6710 c3        1 MOL      0.292235
      9 C4         -1.3760    3.6150    1.6990 c         1 MOL      0.510503
     10 O2         -2.2960    4.4110    1.8670 o         1 MOL     -0.525438
     11 C5         -2.4070    1.8130    3.1910 c3        1 MOL     -0.128977
     12 C6         -3.0190    1.0210    2.0400 c         1 MOL      0.660074
     13 O3         -2.5200    1.1900    0.9080 o         1 MOL     -0.699481
     14 O4         -4.0420    0.3410    2.2880 o         1 MOL     -0.699481
     15 H4         -0.8880    3.0130    4.7910 hn        1 MOL      0.346820
     16 H5         -0.4050    1.8250    2.2320 h1        1 MOL     -0.063079
     17 H6         -3.0710    2.5930    3.5660 hc        1 MOL      0.049801
     18 H7         -2.1000    1.2910    4.1040 hc        1 MOL      0.049801
     19 N2         -0.4980    3.6890    0.6600 n         1 MOL     -0.220183
     20 C7         -0.3790    4.8470   -0.2380 c3        1 MOL     -0.035139
     21 C8         -1.6580    5.2170   -0.9850 c         1 MOL      0.459003
     22 O5         -1.7360    6.4210   -1.3220 o         1 MOL     -0.573264
     23 C9          0.7820    4.6880   -1.2350 c3        1 MOL     -0.270894
     24 C10         2.0540    4.9810   -0.4290 c3        1 MOL     -0.001356
     25 C11         3.2660    4.8780   -1.2490 c3        1 MOL     -0.127490
     26 C12         3.5440    6.1990   -2.0090 c3        1 MOL      0.107057
     27 N3          4.3180    5.9360   -3.2580 n4        1 MOL     -0.473910
     28 H8         -0.0040    2.8370    0.4410 hn        1 MOL      0.188266
     29 H9         -0.1620    5.6500    0.4690 h1        1 MOL      0.111382
     30 H10         0.6750    5.3750   -2.0700 hc        1 MOL      0.097023
     31 H11         0.9200    3.6650   -1.5810 hc        1 MOL      0.097023
     32 H12         2.1770    4.2580    0.3910 hc        1 MOL      0.056958
     33 H13         1.8380    5.9820   -0.0720 hc        1 MOL      0.056958
     34 H14         3.1900    4.0320   -1.9240 hc        1 MOL      0.082148
     35 H15         4.1360    4.6710   -0.6190 hc        1 MOL      0.082148
     36 H16         4.1300    6.8460   -1.3480 hx        1 MOL      0.075332
     37 H17         2.6410    6.7900   -2.1970 hx        1 MOL      0.075332
     38 H18         3.7490    5.4430   -3.9270 hn        1 MOL      0.354672
     39 H19         4.6160    6.8160   -3.6670 hn        1 MOL      0.354672
     40 H20         5.1540    5.4150   -3.0190 hn        1 MOL      0.354672
     41 N4         -2.6410    4.3330   -1.0690 n         1 MOL     -0.166342
     42 C13        -3.9730    4.4920   -1.6230 c3        1 MOL      0.074576
     43 C14        -5.1090    3.8320   -0.7750 c         1 MOL      0.307678
     44 O6         -6.3070    3.9240   -1.1270 o         1 MOL     -0.485997
     45 C15        -4.0130    3.9180   -3.0470 c3        1 MOL     -0.255001
     46 C16        -3.7720    2.4060   -2.9640 c         1 MOL      0.843555
     47 O7         -3.7000    1.8310   -4.0360 o         1 MOL     -0.760926
     48 O8         -3.4660    1.7490   -1.9920 o         1 MOL     -0.760926
     49 H21        -2.5280    3.4110   -0.6610 hn        1 MOL      0.061174
     50 H22        -4.2250    5.5480   -1.5610 h1        1 MOL      0.089050
     51 H23        -3.1430    4.3350   -3.5640 hc        1 MOL      0.064478
     52 H24        -5.0010    4.1580   -3.4370 hc        1 MOL      0.064478
     53 N5         -4.7930    3.2970    0.4550 n         1 MOL      0.005907
     54 C17        -5.8360    2.8740    1.3410 c3        1 MOL     -0.006119
     55 C18        -6.7350    1.7270    0.8070 c         1 MOL      0.396910
     56 O9         -7.9370    1.6690    1.1080 o         1 MOL     -0.548025
     57 H25        -3.8260    3.3850    0.7440 hn        1 MOL      0.023837
     58 H26        -6.4000    3.7640    1.6090 h1        1 MOL      0.051198
     59 H27        -5.2700    2.6370    2.2410 h1        1 MOL      0.051198
     60 N6         -6.1920    0.8030    0.0130 n         1 MOL     -0.070983
     61 C19        -6.8720   -0.3300   -0.4800 c3        1 MOL     -0.112581
     62 C20        -6.9120   -1.5190    0.4440 c         1 MOL      0.479153
     63 O10        -7.4800   -2.5160    0.0920 o         1 MOL     -0.535036
     64 C21        -6.2010   -0.5970   -1.8600 c3        1 MOL     -0.267134
     65 C22        -5.0190   -1.5490   -1.7300 c         1 MOL      0.616031
     66 N7         -5.1400   -2.8160   -2.0560 n         1 MOL     -0.753564
     67 O11        -3.9480   -1.2000   -1.1560 o         1 MOL     -0.603000
     68 H28        -5.1820    0.8460    0.0110 hn        1 MOL      0.098096
     69 H29        -7.9060   -0.0790   -0.6850 h1        1 MOL      0.148288
     70 H30        -5.8760    0.3370   -2.3220 hc        1 MOL      0.123199
     71 H31        -6.9260   -1.0390   -2.5370 hc        1 MOL      0.123199
     72 H32        -5.8920   -3.1120   -2.6690 hn        1 MOL      0.353385
     73 H33        -4.3660   -3.4170   -1.7830 hn        1 MOL      0.353385
     74 N8         -6.2150   -1.4930    1.5890 n         1 MOL     -0.302409
     75 C23        -6.1600   -2.6200    2.5130 c3        1 MOL     -0.036866
     76 C24        -4.7730   -3.2890    2.7130 c         1 MOL      0.529665
     77 O12        -4.6530   -4.0300    3.6910 o         1 MOL     -0.530456
     78 H34        -5.6800   -0.6750    1.8460 hn        1 MOL      0.271469
     79 H35        -6.8180   -3.4010    2.1330 h1        1 MOL      0.074193
     80 H36        -6.5650   -2.3750    3.5050 h1        1 MOL      0.074193
     81 N9         -3.7740   -3.0030    1.7590 n         1 MOL     -0.434537
     82 C25        -2.4500   -3.5920    1.8460 c3        1 MOL      0.102971
     83 C26        -1.3130   -2.7400    1.3370 c         1 MOL      0.683706
     84 O13        -1.4690   -1.8460    0.5340 o         1 MOL     -0.668684
     85 C27        -2.4560   -4.9660    1.1430 c3        1 MOL     -0.214545
     86 C28        -2.8050   -4.9020   -0.3570 ca        1 MOL      0.098510
     87 C29        -1.9070   -4.5170   -1.3150 ca        1 MOL     -0.133689
     88 C30        -4.0290   -5.5190   -0.7710 ca        1 MOL     -0.133689
     89 C31        -2.1370   -4.9070   -2.6580 ca        1 MOL     -0.293588
     90 C32        -4.3010   -5.9690   -2.0940 ca        1 MOL     -0.293588
     91 C33        -3.3210   -5.6030   -3.1110 ca        1 MOL      0.359407
     92 O14        -3.4460   -6.0230   -4.3670 oh        1 MOL     -0.545634
     93 H37        -3.9000   -2.2930    1.0490 hn        1 MOL      0.301152
     94 H38        -2.2470   -3.7450    2.9060 h1        1 MOL      0.053760
     95 H39        -3.2890   -5.5240    1.5670 hc        1 MOL      0.079428
     96 H40        -1.4840   -5.4410    1.2080 hc        1 MOL      0.079428
     97 H41        -0.9500   -4.0590   -1.1000 ha        1 MOL      0.149527
     98 H42        -4.6890   -5.7770    0.0440 ha        1 MOL      0.149527
     99 H43        -1.3820   -4.8090   -3.4200 ha        1 MOL      0.154152
    100 H44        -5.1840   -6.4600   -2.4460 ha        1 MOL      0.154152
    101 H45        -4.3120   -6.2940   -4.6820 ho        1 MOL      0.416842
    102 N10        -0.0840   -3.1030    1.7490 n         1 MOL     -0.413309
    103 C34         1.2340   -2.5430    1.4420 c3        1 MOL     -0.166797
    104 C35         2.2270   -3.5620    0.8750 c         1 MOL      0.526539
    105 O15         2.3870   -4.6670    1.4160 o         1 MOL     -0.565778
    106 C36         1.8700   -1.7790    2.6270 c3        1 MOL      0.217587
    107 C37         2.1590   -2.7810    3.7280 c3        1 MOL     -0.113406
    108 C38         0.9050   -0.6370    3.0350 c3        1 MOL     -0.032806
    109 C39         2.5760   -2.1600    5.0880 c3        1 MOL     -0.181485
    110 H46        -0.0240   -3.8890    2.3850 hn        1 MOL      0.237333
    111 H47         1.1230   -1.7960    0.6640 h1        1 MOL      0.077530
    112 H48         2.6950   -1.2220    2.1830 hc        1 MOL     -0.104301
    113 H49         3.0350   -3.3710    3.4490 hc        1 MOL      0.080176
    114 H50         1.3070   -3.4010    3.9920 hc        1 MOL      0.080176
    115 H51         1.3990    0.1920    3.5390 hc        1 MOL      0.009302
    116 H52         0.4530   -0.1540    2.1780 hc        1 MOL      0.009302
    117 H53         0.0510   -1.0150    3.5880 hc        1 MOL      0.009302
    118 H54         1.7550   -1.5180    5.4240 hc        1 MOL      0.040328
    119 H55         2.6690   -2.9760    5.8030 hc        1 MOL      0.040328
    120 H56         3.4690   -1.5500    5.0360 hc        1 MOL      0.040328
    121 N11         3.0300   -3.1700   -0.0860 n         1 MOL     -0.338752
    122 C40         4.2930   -3.7760   -0.6050 c3        1 MOL      0.006895
    123 C41         5.6030   -3.1000   -0.1630 c         1 MOL      0.593770
    124 O16         5.5360   -2.0660    0.5270 o         1 MOL     -0.485353
    125 C42         4.1860   -3.9980   -2.1160 c3        1 MOL     -0.066104
    126 O17         4.0560   -2.8130   -2.7370 oh        1 MOL     -0.545350
    127 H57         2.8660   -2.2130   -0.3550 hn        1 MOL      0.366132
    128 H58         4.4230   -4.7650   -0.1540 h1        1 MOL      0.074471
    129 H59         3.3350   -4.6440   -2.3500 h1        1 MOL      0.076864
    130 H60         5.0860   -4.5430   -2.4130 h1        1 MOL      0.076864
    131 H61         4.5510   -2.9880   -3.5310 ho        1 MOL      0.414381
    132 N12         6.7630   -3.5920   -0.5260 n         1 MOL     -0.588859
    133 C43         8.0250   -3.0740   -0.0710 c3        1 MOL      0.216832
    134 C44         8.1800   -1.5800   -0.4520 c         1 MOL      0.431229
    135 O18         8.5830   -0.8650    0.4810 o         1 MOL     -0.486585
    136 C45         9.0970   -3.9840   -0.6420 c3        1 MOL     -0.408917
    137 H62         6.8400   -4.5060   -0.9320 hn        1 MOL      0.338108
    138 H63         8.1360   -3.1890    1.0130 h1        1 MOL      0.082933
    139 H64        10.0330   -3.5560   -0.2900 hc        1 MOL      0.113916
    140 H65         8.9580   -5.0370   -0.3780 hc        1 MOL      0.113916
    141 H66         9.1240   -4.0720   -1.7340 hc        1 MOL      0.113916
    142 N13         7.9220   -1.1150   -1.6520 n         1 MOL     -0.272322
    143 C46         7.9620    0.2870   -2.0230 c3        1 MOL     -0.059968
    144 C47         7.1710    1.2250   -1.1370 c         1 MOL      0.441716
    145 O19         7.7140    2.2600   -0.7120 o         1 MOL     -0.485130
    146 C48         7.4880    0.3940   -3.4910 c3        1 MOL     -0.165925
    147 H67         7.8130   -1.7290   -2.4440 hn        1 MOL      0.226453
    148 H68         9.0300    0.4640   -1.9290 h1        1 MOL      0.115810
    149 H69         6.6130   -0.2080   -3.7250 hc        1 MOL      0.060867
    150 H70         7.2540    1.3910   -3.8630 hc        1 MOL      0.060867
    151 H71         8.1960    0.0450   -4.2340 hc        1 MOL      0.060867
    152 N14         5.8950    0.9340   -0.8580 n         1 MOL     -0.355165
    153 C49         4.9880    1.7180    0.0470 c3        1 MOL     -0.024967
    154 C50         5.5600    1.7580    1.5290 c         1 MOL      0.304037
    155 O20         5.5810    2.8950    2.1040 o         1 MOL     -0.526820
    156 C51         3.6110    1.1200    0.0400 c3        1 MOL     -0.065382
    157 C52         2.9030    0.9070   -1.3070 c3        1 MOL      0.094364
    158 C53         1.5430    0.3150   -1.0920 c         1 MOL      0.592645
    159 O21         1.2120   -0.8230   -1.5950 o         1 MOL     -0.652636
    160 O22         0.6950    1.0270   -0.4880 o         1 MOL     -0.652636
    161 H72         5.5710    0.0410   -1.2030 hn        1 MOL      0.258963
    162 H73         4.8010    2.7470   -0.2750 h1        1 MOL      0.079885
    163 H74         2.9910    1.6970    0.7310 hc        1 MOL      0.099502
    164 H75         3.6180    0.1020    0.4250 hc        1 MOL      0.099502
    165 H76         3.5890    0.2060   -1.7820 hc        1 MOL     -0.085794
    166 H77         2.8510    1.8480   -1.8690 hc        1 MOL     -0.085794
    167 N15         6.1800    0.7500    2.0710 n         1 MOL      0.067727
    168 C54         6.7940    0.7540    3.3950 c3        1 MOL     -0.222452
    169 H78         7.7760    0.2830    3.3400 h1        1 MOL      0.100624
    170 H79         6.9030    1.7810    3.7430 h1        1 MOL      0.100624
    171 H80         6.1640    0.1980    4.0890 h1        1 MOL      0.100624
    172 H81         6.2530   -0.0310    1.4410 hn        1 MOL      0.066929
    173 Ca1        -1.6070    0.1120   -1.1750 Ca        1 MOL      1.791065
    174 O23        -1.7410   -1.7050   -3.3610 oh        1 MOL     -0.897576
    175 H82        -2.5870   -1.5900   -3.7990 ho        1 MOL      0.424806
    176 H83        -1.2430   -2.2820   -3.9400 ho        1 MOL      0.424806
    177 O24        -0.8980    1.7650   -3.1850 oh        1 MOL     -0.897576
    178 H84        -0.3050    2.0190   -3.8970 ho        1 MOL      0.424806
    179 H85        -1.7730    1.9210   -3.5330 ho        1 MOL      0.424806
@<TRIPOS>BOND
     1    1    2 1   
     2    1    4 1   
     3    1    5 1   
     4    1    6 1   
     5    2    3 2   
     6    2    7 1   
     7    7    8 1   
     8    7   15 1   
     9    8    9 1   
    10    8   11 1   
    11    8   16 1   
    12    9   10 2   
    13    9   19 1   
    14   11   12 1   
    15   11   17 1   
    16   11   18 1   
    17   12   13 1   
    18   12   14 1   
    19   19   20 1   
    20   19   28 1   
    21   20   21 1   
    22   20   23 1   
    23   20   29 1   
    24   21   22 2   
    25   21   41 1   
    26   23   24 1   
    27   23   30 1   
    28   23   31 1   
    29   24   25 1   
    30   24   32 1   
    31   24   33 1   
    32   25   26 1   
    33   25   34 1   
    34   25   35 1   
    35   26   27 1   
    36   26   36 1   
    37   26   37 1   
    38   27   38 1   
    39   27   39 1   
    40   27   40 1   
    41   41   42 1   
    42   41   49 1   
    43   42   43 1   
    44   42   45 1   
    45   42   50 1   
    46   43   44 2   
    47   43   53 1   
    48   45   46 1   
    49   45   51 1   
    50   45   52 1   
    51   46   47 1   
    52   46   48 1   
    53   53   54 1   
    54   53   57 1   
    55   54   55 1   
    56   54   58 1   
    57   54   59 1   
    58   55   56 2   
    59   55   60 1   
    60   60   61 1   
    61   60   68 1   
    62   61   62 1   
    63   61   64 1   
    64   61   69 1   
    65   62   63 2   
    66   62   74 1   
    67   64   65 1   
    68   64   70 1   
    69   64   71 1   
    70   65   66 1   
    71   65   67 2   
    72   66   72 1   
    73   66   73 1   
    74   74   75 1   
    75   74   78 1   
    76   75   76 1   
    77   75   79 1   
    78   75   80 1   
    79   76   77 2   
    80   76   81 1   
    81   81   82 1   
    82   81   93 1   
    83   82   83 1   
    84   82   85 1   
    85   82   94 1   
    86   83   84 2   
    87   83  102 1   
    88   85   86 1   
    89   85   95 1   
    90   85   96 1   
    91   86   87 ar  
    92   86   88 ar  
    93   87   89 ar  
    94   87   97 1   
    95   88   90 ar  
    96   88   98 1   
    97   89   91 ar  
    98   89   99 1   
    99   90   91 ar  
   100   90  100 1   
   101   91   92 1   
   102   92  101 1   
   103  102  103 1   
   104  102  110 1   
   105  103  104 1   
   106  103  106 1   
   107  103  111 1   
   108  104  105 2   
   109  104  121 1   
   110  106  107 1   
   111  106  108 1   
   112  106  112 1   
   113  107  109 1   
   114  107  113 1   
   115  107  114 1   
   116  108  115 1   
   117  108  116 1   
   118  108  117 1   
   119  109  118 1   
   120  109  119 1   
   121  109  120 1   
   122  121  122 1   
   123  121  127 1   
   124  122  123 1   
   125  122  125 1   
   126  122  128 1   
   127  123  124 2   
   128  123  132 1   
   129  125  126 1   
   130  125  129 1   
   131  125  130 1   
   132  126  131 1   
   133  132  133 1   
   134  132  137 1   
   135  133  134 1   
   136  133  136 1   
   137  133  138 1   
   138  134  135 2   
   139  134  142 1   
   140  136  139 1   
   141  136  140 1   
   142  136  141 1   
   143  142  143 1   
   144  142  147 1   
   145  143  144 1   
   146  143  146 1   
   147  143  148 1   
   148  144  145 2   
   149  144  152 1   
   150  146  149 1   
   151  146  150 1   
   152  146  151 1   
   153  152  153 1   
   154  152  161 1   
   155  153  154 1   
   156  153  156 1   
   157  153  162 1   
   158  154  155 2   
   159  154  167 1   
   160  156  157 1   
   161  156  163 1   
   162  156  164 1   
   163  157  158 1   
   164  157  165 1   
   165  157  166 1   
   166  158  159 1   
   167  158  160 1   
   168  167  168 1   
   169  167  172 1   
   170  168  169 1   
   171  168  170 1   
   172  168  171 1   
   173  174  175 1   
   174  174  176 1   
   175  177  178 1   
   176  177  179 1   
@<TRIPOS>SUBSTRUCTURE
     1 MOL         1 TEMP              0 ****  ****    0 ROOT
