@<TRIPOS>MOLECULE
MOL
  189   185     1     0     0
SMALL
resp


@<TRIPOS>ATOM
      1 C1         -0.8770    2.6880    5.9850 c3        1 MOL     -0.384397
      2 C2         -1.0710    2.2770    4.4780 c         1 MOL      0.698881
      3 O1         -0.1530    2.4170    3.6470 o         1 MOL     -0.638380
      4 H1         -1.8250    2.5880    6.5130 hc        1 MOL      0.100304
      5 H2         -0.1340    2.0380    6.4460 hc        1 MOL      0.100304
      6 H3         -0.5400    3.7240    6.0390 hc        1 MOL      0.100304
      7 N1         -2.1690    1.6570    4.0990 n         1 MOL     -0.538988
      8 C3         -2.6370    1.5830    2.6790 c3        1 MOL      0.119210
      9 C4         -3.0670    2.9100    2.2520 c         1 MOL      0.509852
     10 O2         -4.0100    3.4730    2.8440 o         1 MOL     -0.537054
     11 C5         -3.7730    0.5440    2.6400 c3        1 MOL     -0.290647
     12 C6         -4.2570    0.2750    1.2380 c         1 MOL      0.992760
     13 O3         -5.3330   -0.2960    1.2050 o         1 MOL     -0.722939
     14 O4         -3.6670    0.7460    0.2330 o         1 MOL     -0.722939
     15 H4         -2.7490    1.3240    4.8540 hn        1 MOL      0.312150
     16 H5         -1.8610    1.1670    2.0290 h1        1 MOL     -0.009359
     17 H6         -4.5820    0.9310    3.2630 hc        1 MOL      0.059298
     18 H7         -3.4400   -0.4520    2.9250 hc        1 MOL      0.059298
     19 N2         -2.4390    3.4410    1.1900 n         1 MOL     -0.301029
     20 C7         -2.6240    4.7660    0.5620 c3        1 MOL     -0.005429
     21 C8         -3.8870    4.7510   -0.3220 c         1 MOL      0.408007
     22 O5         -4.7000    5.7020   -0.2470 o         1 MOL     -0.531453
     23 C9         -1.4970    5.2110   -0.2950 c3        1 MOL     -0.161829
     24 C10        -0.3090    5.5260    0.6060 c3        1 MOL      0.145512
     25 C11         0.7990    6.2420   -0.1450 c3        1 MOL     -0.087310
     26 C12         2.1120    6.2010    0.6270 c3        1 MOL      0.133621
     27 N3          3.1300    6.9610    0.0170 n4        1 MOL     -0.309676
     28 H8         -1.7470    2.8980    0.7020 hn        1 MOL      0.213558
     29 H9         -2.8660    5.5400    1.2920 h1        1 MOL      0.073048
     30 H10        -1.8290    6.0650   -0.8810 hc        1 MOL      0.086568
     31 H11        -1.1690    4.4000   -0.9370 hc        1 MOL      0.086568
     32 H12         0.1000    4.5960    0.9940 hc        1 MOL      0.005854
     33 H13        -0.5210    6.1070    1.5100 hc        1 MOL      0.005854
     34 H14         0.4580    7.2750   -0.1260 hc        1 MOL      0.009490
     35 H15         0.9060    5.8780   -1.1730 hc        1 MOL      0.009490
     36 H16         2.4660    5.1790    0.7540 hx        1 MOL      0.062840
     37 H17         1.8000    6.5540    1.6110 hx        1 MOL      0.062840
     38 H18         4.0620    6.9070    0.4270 hn        1 MOL      0.305842
     39 H19         3.2170    6.6140   -0.9280 hn        1 MOL      0.305842
     40 H20         2.8930    7.9370   -0.1430 hn        1 MOL      0.305842
     41 N4         -4.0400    3.6470   -1.0640 n         1 MOL     -0.104451
     42 C13        -5.0940    3.5550   -2.0710 c3        1 MOL     -0.043529
     43 C14        -6.5030    3.2840   -1.5190 c         1 MOL      0.364391
     44 O6         -7.6180    3.5590   -2.0530 o         1 MOL     -0.504821
     45 C15        -4.7840    2.4690   -3.1300 c3        1 MOL     -0.083346
     46 C16        -3.2990    2.3380   -3.4250 c         1 MOL      0.625088
     47 O7         -2.6280    1.8240   -2.5210 o         1 MOL     -0.608811
     48 O8         -2.7510    2.9130   -4.4140 o         1 MOL     -0.608811
     49 H21        -3.3810    2.8920   -1.0320 hn        1 MOL      0.064883
     50 H22        -5.2390    4.4040   -2.7350 h1        1 MOL      0.066444
     51 H23        -5.3480    2.6520   -4.0500 hc        1 MOL      0.056913
     52 H24        -5.1430    1.5030   -2.7960 hc        1 MOL      0.056913
     53 N5         -6.4340    2.3880   -0.5440 n         1 MOL     -0.013756
     54 C17        -7.5930    1.6120   -0.0480 c3        1 MOL     -0.304957
     55 C18        -7.8350    0.3500   -0.8850 c         1 MOL      0.609829
     56 O9         -8.8430    0.1860   -1.5650 o         1 MOL     -0.568119
     57 H25        -5.5080    2.0430   -0.3480 hn        1 MOL      0.056653
     58 H26        -8.4560    2.2400   -0.2400 h1        1 MOL      0.126769
     59 H27        -7.5480    1.2590    0.9920 h1        1 MOL      0.126769
     60 N6         -6.9020   -0.5800   -0.9380 n         1 MOL     -0.310011
     61 C19        -6.8510   -1.8910   -1.6420 c3        1 MOL     -0.100076
     62 C20        -6.5960   -3.1170   -0.7490 c         1 MOL      0.414425
     63 O10        -6.4350   -4.2120   -1.2750 o         1 MOL     -0.504930
     64 C21        -5.9220   -1.8040   -2.8750 c3        1 MOL      0.004225
     65 C22        -4.5240   -1.5070   -2.4970 c         1 MOL      0.785266
     66 O11        -3.8540   -0.8050   -3.3020 o         1 MOL     -0.774926
     67 O12        -4.0240   -2.0670   -1.4820 o         1 MOL     -0.774926
     68 H28        -6.0530   -0.2710   -0.4820 hn        1 MOL      0.159886
     69 H29        -7.8480   -1.9420   -2.0770 h1        1 MOL      0.112299
     70 H30        -6.1710   -1.0060   -3.5760 hc        1 MOL      0.026637
     71 H31        -5.9180   -2.7680   -3.3830 hc        1 MOL      0.026637
     72 N7         -6.5350   -3.0020    0.5760 n         1 MOL     -0.249349
     73 C23        -6.3460   -4.2170    1.4300 c3        1 MOL     -0.214764
     74 C24        -4.9720   -4.7820    1.2020 c         1 MOL      0.562169
     75 O13        -4.7520   -5.8750    1.6010 o         1 MOL     -0.550888
     76 H32        -6.6720   -2.0440    0.8900 hn        1 MOL      0.257289
     77 H33        -7.0110   -5.0210    1.1310 h1        1 MOL      0.126559
     78 H34        -6.5790   -4.0030    2.4750 h1        1 MOL      0.126559
     79 N8         -3.9950   -4.0470    0.5690 n         1 MOL     -0.097005
     80 C25        -2.5860   -4.5760    0.4850 c3        1 MOL     -0.531921
     81 C26        -1.6140   -3.5030    0.7860 c         1 MOL      0.837130
     82 O14        -1.8110   -2.2750    0.4800 o         1 MOL     -0.704729
     83 C27        -2.2370   -5.1270   -0.8850 c3        1 MOL      0.595236
     84 C28        -2.8190   -6.5160   -1.1700 c3        1 MOL     -0.587335
     85 O15        -2.6630   -4.2300   -1.9270 oh        1 MOL     -0.663875
     86 H35        -4.3240   -3.1420    0.2710 hn        1 MOL      0.098063
     87 H36        -2.5300   -5.3190    1.2830 h1        1 MOL      0.166937
     88 H37        -1.1510   -5.1780   -0.9880 h1        1 MOL     -0.020312
     89 H38        -3.2340   -3.5990   -1.4890 ho        1 MOL      0.458453
     90 H39        -2.1050   -6.8210   -1.9260 hc        1 MOL      0.153808
     91 H40        -2.7290   -7.2070   -0.3380 hc        1 MOL      0.153808
     92 H41        -3.8840   -6.5000   -1.4320 hc        1 MOL      0.153808
     93 N9         -0.5350   -3.8940    1.4150 n         1 MOL     -0.622446
     94 C29         0.6520   -3.0840    1.6340 c3        1 MOL      0.211036
     95 C30         1.7910   -3.5060    0.7020 c         1 MOL      0.423988
     96 O16         2.1610   -4.7140    0.7130 o         1 MOL     -0.563215
     97 C31         0.9720   -2.9510    3.1440 c3        1 MOL      0.013356
     98 C32         0.0670   -1.8000    3.6710 c3        1 MOL      0.055868
     99 C33         2.3850   -2.5500    3.5680 c3        1 MOL     -0.196169
    100 C34         0.0870   -1.5130    5.1900 c3        1 MOL     -0.207959
    101 H42        -0.5250   -4.8750    1.6490 hn        1 MOL      0.316798
    102 H43         0.4880   -2.0500    1.3280 h1        1 MOL     -0.075677
    103 H44         0.7670   -3.8850    3.6710 hc        1 MOL      0.033135
    104 H45        -0.9430   -2.1160    3.4040 hc        1 MOL      0.033925
    105 H46         0.2820   -0.9390    3.0390 hc        1 MOL      0.033925
    106 H47         3.0600   -3.2560    3.0950 hc        1 MOL      0.044502
    107 H48         2.5650   -1.4810    3.4070 hc        1 MOL      0.044502
    108 H49         2.5060   -2.7840    4.6160 hc        1 MOL      0.044502
    109 H50        -0.7680   -0.9000    5.4990 hc        1 MOL      0.050806
    110 H51        -0.0350   -2.3940    5.8180 hc        1 MOL      0.050806
    111 H52         1.0280   -1.0000    5.4180 hc        1 MOL      0.050806
    112 N10         2.3480   -2.5990   -0.0800 n         1 MOL     -0.192763
    113 C35         3.5610   -2.7510   -0.8370 c3        1 MOL     -0.095968
    114 C36         4.7750   -2.4790    0.0590 c         1 MOL      0.423707
    115 O17         4.6100   -1.8240    1.0980 o         1 MOL     -0.348993
    116 C37         3.5630   -1.8710   -2.1240 c3        1 MOL      0.296307
    117 C38         2.2590   -1.7660   -2.8850 c3        1 MOL     -0.343067
    118 O18         4.0230   -0.5860   -1.8070 oh        1 MOL     -0.407696
    119 H53         1.8950   -1.6920   -0.0640 hn        1 MOL      0.303980
    120 H54         3.5810   -3.7910   -1.1560 h1        1 MOL      0.069548
    121 H55         4.2630   -2.3580   -2.8080 h1        1 MOL     -0.034475
    122 H56         4.2460   -0.2180   -2.6660 ho        1 MOL      0.324952
    123 H57         1.5160   -1.1890   -2.3240 hc        1 MOL      0.083346
    124 H58         2.4460   -1.4270   -3.9010 hc        1 MOL      0.083346
    125 H59         2.0310   -2.8180   -3.0550 hc        1 MOL      0.083346
    126 N11         5.9620   -2.7980   -0.4580 n         1 MOL     -0.326018
    127 C39         7.2310   -2.3230    0.2040 c3        1 MOL     -0.249724
    128 C40         7.2380   -0.7920    0.3220 c         1 MOL      0.359413
    129 O19         7.5980   -0.3510    1.3510 o         1 MOL     -0.469528
    130 C41         8.5470   -2.7030   -0.5130 c3        1 MOL      0.412571
    131 C42         8.7890   -4.2090   -0.3900 c3        1 MOL     -0.437679
    132 O20         8.5150   -2.3240   -1.8560 oh        1 MOL     -0.613747
    133 H60         6.0780   -3.3160   -1.3190 hn        1 MOL      0.299215
    134 H61         7.2950   -2.7580    1.2020 h1        1 MOL      0.180036
    135 H62         9.4370   -2.1910   -0.1430 h1        1 MOL      0.046970
    136 H63         9.3680   -1.9310   -2.0350 ho        1 MOL      0.320555
    137 H64         8.9540   -4.5620    0.6320 hc        1 MOL      0.123290
    138 H65         8.1150   -4.8100   -1.0050 hc        1 MOL      0.123290
    139 H66         9.8000   -4.2900   -0.7860 hc        1 MOL      0.123290
    140 N12         6.8850    0.0430   -0.7000 n         1 MOL     -0.137883
    141 C43         6.9520    1.4940   -0.6090 c3        1 MOL     -0.205717
    142 C44         6.0030    2.0640    0.4220 c         1 MOL      0.351047
    143 O21         6.2140    3.1450    0.9780 o         1 MOL     -0.506927
    144 C45         6.7520    2.2430   -1.8600 c3        1 MOL     -0.210108
    145 C46         7.4410    1.7600   -3.1310 c3        1 MOL      0.008799
    146 C47         9.0050    1.9500   -3.0830 c3        1 MOL     -0.113662
    147 C48         9.7720    1.6680   -4.4000 c3        1 MOL      0.000520
    148 N13         9.7000    0.2420   -4.6560 n4        1 MOL     -0.310578
    149 H67         6.4690   -0.4380   -1.4930 hn        1 MOL      0.116834
    150 H68         7.9850    1.6550   -0.2900 h1        1 MOL      0.163467
    151 H69         6.9530    3.3080   -1.7140 hc        1 MOL      0.115118
    152 H70         5.6990    2.1620   -2.1050 hc        1 MOL      0.115118
    153 H71         7.1080    2.4180   -3.9330 hc        1 MOL      0.027831
    154 H72         7.1250    0.7720   -3.4570 hc        1 MOL      0.027831
    155 H73         9.3570    1.3370   -2.2510 hc        1 MOL      0.070154
    156 H74         9.2070    3.0050   -2.8920 hc        1 MOL      0.070154
    157 H75        10.8190    1.9810   -4.3990 hx        1 MOL      0.103652
    158 H76         9.3530    2.1380   -5.2840 hx        1 MOL      0.103652
    159 H77        10.0220   -0.2590   -3.8460 hn        1 MOL      0.265062
    160 H78         8.7700   -0.0220   -4.9520 hn        1 MOL      0.265062
    161 H79        10.3150    0.0090   -5.4230 hn        1 MOL      0.265062
    162 N14         4.9580    1.2770    0.8060 n         1 MOL     -0.006543
    163 C49         4.0030    1.6760    1.7950 c3        1 MOL     -0.118132
    164 C50         4.3380    1.2130    3.1510 c         1 MOL      0.467540
    165 O22         3.9510    1.8760    4.1080 o         1 MOL     -0.554097
    166 C51         2.6210    1.0480    1.4930 c3        1 MOL      0.075054
    167 C52         2.0370    1.5560    0.2150 c3        1 MOL     -0.036622
    168 C53         0.6080    0.9710   -0.1050 c         1 MOL      0.687799
    169 O23         0.5540   -0.2490   -0.2070 o         1 MOL     -0.629253
    170 O24        -0.3440    1.7400   -0.1990 o         1 MOL     -0.629253
    171 H80         4.8120    0.4320    0.2820 hn        1 MOL      0.102152
    172 H81         3.8830    2.7500    1.8680 h1        1 MOL      0.053318
    173 H82         1.9280    1.2820    2.2930 hc        1 MOL      0.079288
    174 H83         2.6300   -0.0370    1.5330 hc        1 MOL      0.079288
    175 H84         2.7390    1.4840   -0.6190 hc        1 MOL     -0.073841
    176 H85         1.8990    2.6380    0.2950 hc        1 MOL     -0.073841
    177 N15         4.9790    0.0700    3.2910 n         1 MOL     -0.171241
    178 C54         5.4350   -0.5240    4.5360 c3        1 MOL     -0.143471
    179 H86         6.5160   -0.6600    4.5000 h1        1 MOL      0.071586
    180 H87         5.1790    0.1310    5.3680 h1        1 MOL      0.071586
    181 H88         4.9540   -1.4920    4.6750 h1        1 MOL      0.071586
    182 H89         5.0340   -0.5170    2.4650 hn        1 MOL      0.156794
    183 Ca1        -1.8910   -0.2710   -1.3340 Ca        1 MOL      1.692407
    184 O25        -0.1300    0.4310   -3.2990 oh        1 MOL     -0.880458
    185 H90         0.3460   -0.2220   -3.8140 ho        1 MOL      0.411106
    186 H91        -0.3530    1.1190   -3.9320 ho        1 MOL      0.411106
    187 O26        -0.6830   -2.4640   -2.4640 oh        1 MOL     -0.880458
    188 H92        -1.2970   -3.1820   -2.3250 ho        1 MOL      0.411106
    189 H93        -0.4370   -2.5320   -3.3900 ho        1 MOL      0.411106
@<TRIPOS>BOND
     1    1    2 1   
     2    1    4 1   
     3    1    5 1   
     4    1    6 1   
     5    2    3 2   
     6    2    7 1   
     7    7    8 1   
     8    7   15 1   
     9    8    9 1   
    10    8   11 1   
    11    8   16 1   
    12    9   10 2   
    13    9   19 1   
    14   11   12 1   
    15   11   17 1   
    16   11   18 1   
    17   12   13 1   
    18   12   14 1   
    19   19   20 1   
    20   19   28 1   
    21   20   21 1   
    22   20   23 1   
    23   20   29 1   
    24   21   22 2   
    25   21   41 1   
    26   23   24 1   
    27   23   30 1   
    28   23   31 1   
    29   24   25 1   
    30   24   32 1   
    31   24   33 1   
    32   25   26 1   
    33   25   34 1   
    34   25   35 1   
    35   26   27 1   
    36   26   36 1   
    37   26   37 1   
    38   27   38 1   
    39   27   39 1   
    40   27   40 1   
    41   41   42 1   
    42   41   49 1   
    43   42   43 1   
    44   42   45 1   
    45   42   50 1   
    46   43   44 2   
    47   43   53 1   
    48   45   46 1   
    49   45   51 1   
    50   45   52 1   
    51   46   47 1   
    52   46   48 1   
    53   53   54 1   
    54   53   57 1   
    55   54   55 1   
    56   54   58 1   
    57   54   59 1   
    58   55   56 2   
    59   55   60 1   
    60   60   61 1   
    61   60   68 1   
    62   61   62 1   
    63   61   64 1   
    64   61   69 1   
    65   62   63 2   
    66   62   72 1   
    67   64   65 1   
    68   64   70 1   
    69   64   71 1   
    70   65   66 1   
    71   65   67 1   
    72   72   73 1   
    73   72   76 1   
    74   73   74 1   
    75   73   77 1   
    76   73   78 1   
    77   74   75 2   
    78   74   79 1   
    79   79   80 1   
    80   79   86 1   
    81   80   81 1   
    82   80   83 1   
    83   80   87 1   
    84   81   82 2   
    85   81   93 1   
    86   83   84 1   
    87   83   85 1   
    88   83   88 1   
    89   84   90 1   
    90   84   91 1   
    91   84   92 1   
    92   85   89 1   
    93   93   94 1   
    94   93  101 1   
    95   94   95 1   
    96   94   97 1   
    97   94  102 1   
    98   95   96 2   
    99   95  112 1   
   100   97   98 1   
   101   97   99 1   
   102   97  103 1   
   103   98  100 1   
   104   98  104 1   
   105   98  105 1   
   106   99  106 1   
   107   99  107 1   
   108   99  108 1   
   109  100  109 1   
   110  100  110 1   
   111  100  111 1   
   112  112  113 1   
   113  112  119 1   
   114  113  114 1   
   115  113  116 1   
   116  113  120 1   
   117  114  115 2   
   118  114  126 1   
   119  116  117 1   
   120  116  118 1   
   121  116  121 1   
   122  117  123 1   
   123  117  124 1   
   124  117  125 1   
   125  118  122 1   
   126  126  127 1   
   127  126  133 1   
   128  127  128 1   
   129  127  130 1   
   130  127  134 1   
   131  128  129 2   
   132  128  140 1   
   133  130  131 1   
   134  130  132 1   
   135  130  135 1   
   136  131  137 1   
   137  131  138 1   
   138  131  139 1   
   139  132  136 1   
   140  140  141 1   
   141  140  149 1   
   142  141  142 1   
   143  141  144 1   
   144  141  150 1   
   145  142  143 2   
   146  142  162 1   
   147  144  145 1   
   148  144  151 1   
   149  144  152 1   
   150  145  146 1   
   151  145  153 1   
   152  145  154 1   
   153  146  147 1   
   154  146  155 1   
   155  146  156 1   
   156  147  148 1   
   157  147  157 1   
   158  147  158 1   
   159  148  159 1   
   160  148  160 1   
   161  148  161 1   
   162  162  163 1   
   163  162  171 1   
   164  163  164 1   
   165  163  166 1   
   166  163  172 1   
   167  164  165 2   
   168  164  177 1   
   169  166  167 1   
   170  166  173 1   
   171  166  174 1   
   172  167  168 1   
   173  167  175 1   
   174  167  176 1   
   175  168  169 1   
   176  168  170 1   
   177  177  178 1   
   178  177  182 1   
   179  178  179 1   
   180  178  180 1   
   181  178  181 1   
   182  184  185 1   
   183  184  186 1   
   184  187  188 1   
   185  187  189 1   
@<TRIPOS>SUBSTRUCTURE
     1 MOL         1 TEMP              0 ****  ****    0 ROOT
