@<TRIPOS>MOLECULE
MOL
  186   183     1     0     0
SMALL
resp


@<TRIPOS>ATOM
      1 C1          0.5510   -1.9230    6.1180 c3        1 MOL     -0.295909
      2 C2          0.9390   -1.9870    4.6480 c         1 MOL      0.694371
      3 O1          0.2820   -2.5520    3.7720 o         1 MOL     -0.535957
      4 H1         -0.5080   -1.6800    6.2030 hc        1 MOL      0.073200
      5 H2          0.7400   -2.8890    6.5870 hc        1 MOL      0.073200
      6 H3          1.1410   -1.1540    6.6170 hc        1 MOL      0.073200
      7 N1          2.1250   -1.6160    4.2800 n         1 MOL     -0.538200
      8 C3          2.6310   -1.6130    2.8970 c3        1 MOL      0.291098
      9 C4          3.0290   -3.0270    2.4840 c         1 MOL      0.493049
     10 O2          3.9050   -3.6000    3.0720 o         1 MOL     -0.576134
     11 C5          3.7960   -0.6400    2.7330 c3        1 MOL     -0.350278
     12 C6          4.5290   -0.6440    1.3890 c         1 MOL      0.893325
     13 O3          5.5840   -0.0290    1.2130 o         1 MOL     -0.701199
     14 O4          3.9150   -1.1890    0.4480 o         1 MOL     -0.701199
     15 H4          2.7950   -1.1720    4.8930 hn        1 MOL      0.280440
     16 H5          1.7450   -1.3440    2.3170 h1        1 MOL     -0.072760
     17 H6          4.4350   -0.8900    3.5800 hc        1 MOL      0.044331
     18 H7          3.4450    0.4000    2.7750 hc        1 MOL      0.044331
     19 N2          2.3210   -3.6560    1.4560 n         1 MOL     -0.021272
     20 C7          2.3820   -5.0580    1.0420 c3        1 MOL     -0.215903
     21 C8          3.3370   -5.2570   -0.1540 c         1 MOL      0.507724
     22 O5          3.9220   -6.3060   -0.3050 o         1 MOL     -0.577203
     23 C9          1.0020   -5.5230    0.7510 c3        1 MOL      0.374509
     24 C10         0.3250   -5.8870    2.1000 c3        1 MOL      0.331894
     25 C11         0.9240   -6.7310   -0.2280 c3        1 MOL     -0.420998
     26 C12        -1.2240   -5.9220    2.0040 c3        1 MOL     -0.193549
     27 H8          1.5840   -3.1170    1.0350 hn        1 MOL     -0.020816
     28 H9          2.8570   -5.6610    1.8200 h1        1 MOL      0.066984
     29 H10         0.4670   -4.6690    0.3400 hc        1 MOL     -0.044309
     30 H11         0.6590   -5.2930    2.9460 hc        1 MOL     -0.122649
     31 H12         0.6630   -6.9130    2.2570 hc        1 MOL     -0.122649
     32 H13         1.5310   -7.5790    0.0750 hc        1 MOL      0.090007
     33 H14        -0.1160   -7.0500   -0.2900 hc        1 MOL      0.090007
     34 H15         1.0640   -6.4740   -1.2780 hc        1 MOL      0.090007
     35 H16        -1.5370   -4.8780    2.0600 hc        1 MOL      0.023543
     36 H17        -1.5520   -6.3760    1.0630 hc        1 MOL      0.023543
     37 H18        -1.6320   -6.4970    2.8240 hc        1 MOL      0.023543
     38 N3          3.6910   -4.2410   -0.9590 n         1 MOL     -0.295973
     39 C13         4.5550   -4.3390   -2.1060 c3        1 MOL      0.040300
     40 C14         5.7990   -3.5080   -1.9660 c         1 MOL      0.457340
     41 O6          6.5870   -3.4400   -2.8860 o         1 MOL     -0.524218
     42 C15         3.8610   -3.9240   -3.4060 c3        1 MOL     -0.127003
     43 C16         3.0390   -2.6220   -3.2590 c         1 MOL      0.641784
     44 O7          1.8740   -2.5260   -3.7110 o         1 MOL     -0.680232
     45 O8          3.4050   -1.6510   -2.5530 o         1 MOL     -0.680232
     46 H19         3.1650   -3.3750   -0.9210 hn        1 MOL      0.249937
     47 H20         4.9930   -5.3330   -2.2290 h1        1 MOL      0.071377
     48 H21         3.1010   -4.6870   -3.6240 hc        1 MOL      0.031782
     49 H22         4.6220   -3.8830   -4.1860 hc        1 MOL      0.031782
     50 N4          6.0190   -2.8270   -0.8000 n         1 MOL     -0.244570
     51 C17         7.3020   -2.3450   -0.2980 c3        1 MOL     -0.193474
     52 C18         7.8390   -1.1170   -0.9950 c         1 MOL      0.463141
     53 O9          9.0710   -1.1760   -1.3060 o         1 MOL     -0.616097
     54 H23         5.1810   -2.6840   -0.2520 hn        1 MOL      0.150617
     55 H24         8.0210   -3.1510   -0.3850 h1        1 MOL      0.106982
     56 H25         7.1900   -2.1650    0.7760 h1        1 MOL      0.106982
     57 N5          7.0140   -0.1590   -1.2640 n         1 MOL      0.021427
     58 C19         7.4180    1.1530   -1.8060 c3        1 MOL     -0.157200
     59 C20         7.6430    2.2430   -0.7540 c         1 MOL      0.422878
     60 O10         8.1540    3.2720   -1.0920 o         1 MOL     -0.555859
     61 C21         6.4420    1.7300   -2.7810 c3        1 MOL      0.148309
     62 C22         5.0370    2.1280   -2.2800 c         1 MOL      0.611719
     63 O11         4.3780    1.3670   -1.5650 o         1 MOL     -0.694601
     64 O12         4.5910    3.2270   -2.6730 o         1 MOL     -0.694601
     65 H26         6.0840   -0.2940   -0.9130 hn        1 MOL     -0.046199
     66 H27         8.2980    1.0110   -2.4360 h1        1 MOL      0.092262
     67 H28         6.2650    1.0310   -3.6000 hc        1 MOL     -0.020868
     68 H29         6.8600    2.6190   -3.2740 hc        1 MOL     -0.020868
     69 N6          7.1070    2.0620    0.4020 n         1 MOL     -0.212830
     70 C23         7.0510    3.0580    1.4870 c3        1 MOL     -0.049412
     71 C24         5.7850    3.7590    1.6420 c         1 MOL      0.528482
     72 O13         5.8140    4.7670    2.4660 o         1 MOL     -0.632313
     73 H30         6.5520    1.2350    0.5820 hn        1 MOL      0.195160
     74 H31         7.7380    3.8790    1.3090 h1        1 MOL      0.067945
     75 H32         7.3450    2.5900    2.4240 h1        1 MOL      0.067945
     76 N7          4.6870    3.4830    0.9220 n         1 MOL     -0.326010
     77 C25         3.2870    4.0700    1.1010 c3        1 MOL     -0.054406
     78 C26         2.1500    3.0730    1.0990 c         1 MOL      0.567171
     79 O14         2.2250    2.0340    0.4780 o         1 MOL     -0.661110
     80 C27         2.9750    5.1550    0.0670 c3        1 MOL      0.147963
     81 C28         3.7170    6.4690    0.4090 c3        1 MOL     -0.315347
     82 C29         3.2040    7.7270   -0.2850 c         1 MOL      0.698711
     83 N8          4.0200    8.6780   -0.4600 n         1 MOL     -0.722045
     84 O15         2.0520    7.9710   -0.6140 o         1 MOL     -0.582293
     85 H33         4.6690    2.7090    0.2680 hn        1 MOL      0.348896
     86 H34         3.1170    4.5050    2.0870 h1        1 MOL      0.031963
     87 H35         1.9030    5.3460    0.0690 hc        1 MOL     -0.004246
     88 H36         3.2960    4.6940   -0.8720 hc        1 MOL     -0.004246
     89 H37         4.7890    6.3360    0.2630 hc        1 MOL      0.098518
     90 H38         3.5800    6.6630    1.4720 hc        1 MOL      0.098518
     91 H39         4.9830    8.5790   -0.1860 hn        1 MOL      0.316813
     92 H40         3.6690    9.6210   -0.3360 hn        1 MOL      0.316813
     93 N9          1.1100    3.3620    1.8580 n         1 MOL     -0.296688
     94 C30        -0.1380    2.5580    1.9330 c3        1 MOL     -0.182099
     95 C31        -1.1510    2.9620    0.9200 c         1 MOL      0.622401
     96 O16        -1.4960    4.1260    0.8930 o         1 MOL     -0.614179
     97 C32        -0.6990    2.5520    3.3990 c3        1 MOL      0.476518
     98 C33        -2.0050    1.7930    3.5430 c3        1 MOL     -0.376237
     99 C34         0.3070    2.1600    4.4610 c3        1 MOL     -0.376237
    100 H41         1.1110    4.2830    2.2690 hn        1 MOL      0.247829
    101 H42         0.1210    1.5290    1.6910 h1        1 MOL      0.152548
    102 H43        -0.9200    3.5850    3.6860 hc        1 MOL     -0.095074
    103 H44        -1.8120    0.7300    3.3860 hc        1 MOL      0.066487
    104 H45        -2.3880    1.9840    4.5420 hc        1 MOL      0.066487
    105 H46        -2.6420    2.1160    2.7160 hc        1 MOL      0.066487
    106 H47         1.1120    2.8900    4.5550 hc        1 MOL      0.066487
    107 H48        -0.2140    1.9830    5.4020 hc        1 MOL      0.066487
    108 H49         0.6460    1.1820    4.1070 hc        1 MOL      0.066487
    109 N10        -1.6790    2.1300    0.0400 n         1 MOL     -0.323316
    110 C35        -2.9310    2.4470   -0.6640 c3        1 MOL      0.128884
    111 C36        -4.2100    2.1020    0.1980 c         1 MOL      0.320058
    112 O17        -4.0990    1.1800    0.9520 o         1 MOL     -0.159533
    113 C37        -2.9600    1.6950   -1.9760 c3        1 MOL     -0.560171
    114 C38        -4.0320    2.1230   -2.9430 c         1 MOL      0.744177
    115 N11        -3.8640    3.2340   -3.5990 n         1 MOL     -0.764307
    116 O18        -5.0840    1.5690   -3.1770 o         1 MOL     -0.532115
    117 H50        -1.2180    1.2520   -0.1100 hn        1 MOL      0.197542
    118 H51        -2.9950    3.5050   -0.9170 h1        1 MOL      0.022762
    119 H52        -3.1740    0.6380   -1.8050 hc        1 MOL      0.219480
    120 H53        -1.9640    1.7270   -2.4230 hc        1 MOL      0.219480
    121 H54        -3.1080    3.8440   -3.3130 hn        1 MOL      0.344694
    122 H55        -4.5800    3.6180   -4.1990 hn        1 MOL      0.344694
    123 N12        -5.3970    2.4910   -0.2850 n         1 MOL     -0.406820
    124 C39        -6.7260    1.9320   -0.0170 c3        1 MOL      0.002148
    125 C40        -6.8640    0.3880    0.0020 c         1 MOL      0.750755
    126 O19        -7.2440   -0.1710    1.0030 o         1 MOL     -0.582910
    127 C41        -7.7510    2.5650   -0.9480 c3        1 MOL     -0.064709
    128 C42        -9.1430    2.0870   -0.7260 ca        1 MOL      0.032606
    129 C43        -9.7950    2.5860    0.4680 ca        1 MOL     -0.253292
    130 C44        -9.7870    1.2290   -1.6210 ca        1 MOL     -0.253292
    131 C45       -11.0360    2.0160    0.7980 ca        1 MOL     -0.166075
    132 C46       -11.1320    0.8350   -1.3680 ca        1 MOL     -0.166075
    133 C47       -11.7390    1.1960   -0.1100 ca        1 MOL      0.264256
    134 O20       -12.8860    0.6670    0.1720 oh        1 MOL     -0.480043
    135 H56        -5.3210    3.2150   -0.9890 hn        1 MOL      0.229068
    136 H57        -6.8470    2.2000    1.0320 h1        1 MOL      0.054881
    137 H58        -7.5290    2.5050   -2.0120 hc        1 MOL      0.051567
    138 H59        -7.7090    3.6450   -0.8020 hc        1 MOL      0.051567
    139 H60        -9.3330    3.2620    1.1730 ha        1 MOL      0.166951
    140 H61        -9.2240    0.8550   -2.4570 ha        1 MOL      0.166951
    141 H62       -11.5500    2.3590    1.6780 ha        1 MOL      0.118270
    142 H63       -11.6130    0.3130   -2.1790 ha        1 MOL      0.118270
    143 H64       -13.1090   -0.0130   -0.4650 ho        1 MOL      0.376892
    144 N13        -6.4770   -0.3010   -1.0800 n         1 MOL     -0.454990
    145 C48        -6.4720   -1.7890   -1.1430 c3        1 MOL     -0.022088
    146 C49        -5.5030   -2.5090   -0.0820 c         1 MOL      0.392237
    147 O21        -5.5580   -3.6870    0.3000 o         1 MOL     -0.525145
    148 C50        -6.2420   -2.2940   -2.5930 c3        1 MOL      0.077935
    149 C51        -4.9840   -1.7210   -3.2020 c3        1 MOL     -0.058892
    150 C52        -4.6720   -2.3970   -4.5720 c         1 MOL      0.679516
    151 O22        -4.5070   -1.7290   -5.6020 o         1 MOL     -0.727079
    152 O23        -4.4880   -3.6320   -4.5610 o         1 MOL     -0.727079
    153 H65        -6.2770    0.2600   -1.8930 hn        1 MOL      0.306118
    154 H66        -7.4670   -2.1400   -0.8550 h1        1 MOL      0.048115
    155 H67        -7.0920   -1.9760   -3.1830 hc        1 MOL     -0.019954
    156 H68        -6.2600   -3.3830   -2.6240 hc        1 MOL     -0.019954
    157 H69        -4.1810   -1.9410   -2.4960 hc        1 MOL     -0.043685
    158 H70        -5.1360   -0.6540   -3.3060 hc        1 MOL     -0.043685
    159 N14        -4.5880   -1.7120    0.4600 n         1 MOL     -0.091897
    160 C53        -3.7720   -2.1570    1.5900 c3        1 MOL      0.002120
    161 C54        -4.3910   -1.6900    2.8930 c         1 MOL      0.465578
    162 O24        -4.3000   -2.4560    3.8260 o         1 MOL     -0.586077
    163 C55        -2.3250   -1.6710    1.6100 c3        1 MOL      0.407757
    164 C56        -1.6340   -2.0120    0.2050 c3        1 MOL     -0.278429
    165 C57        -0.2050   -1.4630   -0.0020 c         1 MOL      0.830771
    166 O25         0.7600   -2.1060   -0.4220 o         1 MOL     -0.692886
    167 O26         0.0020   -0.2360    0.1890 o         1 MOL     -0.692886
    168 H71        -4.4840   -0.7710    0.0980 hn        1 MOL      0.033291
    169 H72        -3.7660   -3.2450    1.6080 h1        1 MOL      0.070108
    170 H73        -1.7800   -2.2470    2.3590 hc        1 MOL     -0.136298
    171 H74        -2.3540   -0.6010    1.7910 hc        1 MOL     -0.136298
    172 H75        -2.1800   -1.5260   -0.6020 hc        1 MOL      0.072322
    173 H76        -1.6910   -3.0820   -0.0050 hc        1 MOL      0.072322
    174 N15        -5.1170   -0.5660    3.0030 n         1 MOL     -0.099813
    175 C58        -5.9220   -0.1570    4.2160 c3        1 MOL     -0.272808
    176 H77        -6.9520    0.0370    3.9190 h1        1 MOL      0.099714
    177 H78        -5.9010   -0.9600    4.9530 h1        1 MOL      0.099714
    178 H79        -5.4930    0.7460    4.6490 h1        1 MOL      0.099714
    179 H80        -5.1350   -0.0010    2.1610 hn        1 MOL      0.036239
    180 Ca1         2.2490   -0.0320   -1.0840 Ca        1 MOL      1.699286
    181 O27         0.1850   -0.1080   -3.2180 oh        1 MOL     -0.884720
    182 H81        -0.2640    0.4030   -3.8890 ho        1 MOL      0.411735
    183 H82         0.6400   -0.7960   -3.7100 ho        1 MOL      0.411735
    184 O28         1.9630    2.2110   -2.7220 oh        1 MOL     -0.884720
    185 H83         2.7740    2.6690   -2.4850 ho        1 MOL      0.411735
    186 H84         1.7600    2.5160   -3.6050 ho        1 MOL      0.411735
@<TRIPOS>BOND
     1    1    2 1   
     2    1    4 1   
     3    1    5 1   
     4    1    6 1   
     5    2    3 2   
     6    2    7 1   
     7    7    8 1   
     8    7   15 1   
     9    8    9 1   
    10    8   11 1   
    11    8   16 1   
    12    9   10 2   
    13    9   19 1   
    14   11   12 1   
    15   11   17 1   
    16   11   18 1   
    17   12   13 1   
    18   12   14 1   
    19   19   20 1   
    20   19   27 1   
    21   20   21 1   
    22   20   23 1   
    23   20   28 1   
    24   21   22 2   
    25   21   38 1   
    26   23   24 1   
    27   23   25 1   
    28   23   29 1   
    29   24   26 1   
    30   24   30 1   
    31   24   31 1   
    32   25   32 1   
    33   25   33 1   
    34   25   34 1   
    35   26   35 1   
    36   26   36 1   
    37   26   37 1   
    38   38   39 1   
    39   38   46 1   
    40   39   40 1   
    41   39   42 1   
    42   39   47 1   
    43   40   41 2   
    44   40   50 1   
    45   42   43 1   
    46   42   48 1   
    47   42   49 1   
    48   43   44 1   
    49   43   45 1   
    50   50   51 1   
    51   50   54 1   
    52   51   52 1   
    53   51   55 1   
    54   51   56 1   
    55   52   53 2   
    56   52   57 1   
    57   57   58 1   
    58   57   65 1   
    59   58   59 1   
    60   58   61 1   
    61   58   66 1   
    62   59   60 2   
    63   59   69 1   
    64   61   62 1   
    65   61   67 1   
    66   61   68 1   
    67   62   63 1   
    68   62   64 1   
    69   69   70 1   
    70   69   73 1   
    71   70   71 1   
    72   70   74 1   
    73   70   75 1   
    74   71   72 2   
    75   71   76 1   
    76   76   77 1   
    77   76   85 1   
    78   77   78 1   
    79   77   80 1   
    80   77   86 1   
    81   78   79 2   
    82   78   93 1   
    83   80   81 1   
    84   80   87 1   
    85   80   88 1   
    86   81   82 1   
    87   81   89 1   
    88   81   90 1   
    89   82   83 1   
    90   82   84 2   
    91   83   91 1   
    92   83   92 1   
    93   93   94 1   
    94   93  100 1   
    95   94   95 1   
    96   94   97 1   
    97   94  101 1   
    98   95   96 2   
    99   95  109 1   
   100   97   98 1   
   101   97   99 1   
   102   97  102 1   
   103   98  103 1   
   104   98  104 1   
   105   98  105 1   
   106   99  106 1   
   107   99  107 1   
   108   99  108 1   
   109  109  110 1   
   110  109  117 1   
   111  110  111 1   
   112  110  113 1   
   113  110  118 1   
   114  111  112 2   
   115  111  123 1   
   116  113  114 1   
   117  113  119 1   
   118  113  120 1   
   119  114  115 1   
   120  114  116 2   
   121  115  121 1   
   122  115  122 1   
   123  123  124 1   
   124  123  135 1   
   125  124  125 1   
   126  124  127 1   
   127  124  136 1   
   128  125  126 2   
   129  125  144 1   
   130  127  128 1   
   131  127  137 1   
   132  127  138 1   
   133  128  129 ar  
   134  128  130 ar  
   135  129  131 ar  
   136  129  139 1   
   137  130  132 ar  
   138  130  140 1   
   139  131  133 ar  
   140  131  141 1   
   141  132  133 ar  
   142  132  142 1   
   143  133  134 1   
   144  134  143 1   
   145  144  145 1   
   146  144  153 1   
   147  145  146 1   
   148  145  148 1   
   149  145  154 1   
   150  146  147 2   
   151  146  159 1   
   152  148  149 1   
   153  148  155 1   
   154  148  156 1   
   155  149  150 1   
   156  149  157 1   
   157  149  158 1   
   158  150  151 1   
   159  150  152 1   
   160  159  160 1   
   161  159  168 1   
   162  160  161 1   
   163  160  163 1   
   164  160  169 1   
   165  161  162 2   
   166  161  174 1   
   167  163  164 1   
   168  163  170 1   
   169  163  171 1   
   170  164  165 1   
   171  164  172 1   
   172  164  173 1   
   173  165  166 1   
   174  165  167 1   
   175  174  175 1   
   176  174  179 1   
   177  175  176 1   
   178  175  177 1   
   179  175  178 1   
   180  181  182 1   
   181  181  183 1   
   182  184  185 1   
   183  184  186 1   
@<TRIPOS>SUBSTRUCTURE
     1 MOL         1 TEMP              0 ****  ****    0 ROOT
