@<TRIPOS>MOLECULE
MOL
  189   185     1     0     0
SMALL
resp


@<TRIPOS>ATOM
      1 C1          0.2100   -4.4700    5.7800 c3        1 MOL     -0.374525
      2 C2          0.7540   -3.8640    4.4750 c         1 MOL      0.825931
      3 O1          0.8920   -2.6740    4.4070 o         1 MOL     -0.615575
      4 H1          1.0440   -4.7830    6.4100 hc        1 MOL      0.088619
      5 H2         -0.3830   -3.7240    6.3080 hc        1 MOL      0.088619
      6 H3         -0.4140   -5.3340    5.5480 hc        1 MOL      0.088619
      7 N1          1.1050   -4.7280    3.5450 n         1 MOL     -0.717108
      8 C3          1.7120   -4.3670    2.2080 c3        1 MOL      0.577358
      9 C4          1.4040   -5.3290    1.0960 c         1 MOL      0.438896
     10 O2          1.4350   -6.5300    1.3570 o         1 MOL     -0.612990
     11 C5          3.2090   -4.1460    2.3460 c3        1 MOL     -0.326503
     12 C6          3.9150   -3.5610    1.2030 c         1 MOL      0.710816
     13 O3          5.1160   -3.8090    1.0740 o         1 MOL     -0.655783
     14 O4          3.3460   -2.7490    0.4160 o         1 MOL     -0.655783
     15 H4          0.8410   -5.6830    3.7170 hn        1 MOL      0.316909
     16 H5          1.2690   -3.4100    1.9170 h1        1 MOL     -0.198668
     17 H6          3.4660   -5.1390    2.7180 hc        1 MOL      0.059119
     18 H7          3.3750   -3.4640    3.1880 hc        1 MOL      0.059119
     19 N2          1.2170   -4.8560   -0.0940 n         1 MOL     -0.249464
     20 C7          1.1180   -5.6420   -1.2830 c3        1 MOL     -0.008568
     21 C8          2.1050   -5.1600   -2.4380 c         1 MOL      0.497645
     22 O5          2.1770   -5.7510   -3.5290 o         1 MOL     -0.539344
     23 C9         -0.2880   -5.6350   -1.6910 c3        1 MOL      0.154912
     24 C10        -1.1980   -5.9590   -0.4840 c3        1 MOL     -0.109823
     25 C11        -0.5560   -6.7050   -2.7720 c3        1 MOL     -0.170853
     26 C12        -2.6120   -6.2720   -0.8310 c3        1 MOL     -0.120925
     27 H8          1.1720   -3.8450   -0.1040 hn        1 MOL      0.129736
     28 H9          1.3790   -6.6720   -1.0190 h1        1 MOL      0.082261
     29 H10        -0.6770   -4.7420   -2.1780 hc        1 MOL      0.056381
     30 H11        -1.2900   -5.1680    0.2590 hc        1 MOL      0.039272
     31 H12        -0.8640   -6.7950    0.1230 hc        1 MOL      0.039272
     32 H13        -0.2860   -7.7250   -2.5060 hc        1 MOL      0.025472
     33 H14        -1.5600   -6.6240   -3.1720 hc        1 MOL      0.025472
     34 H15         0.0890   -6.6220   -3.6530 hc        1 MOL      0.025472
     35 H16        -3.1240   -6.5320    0.1000 hc        1 MOL      0.031998
     36 H17        -3.1180   -5.4890   -1.4020 hc        1 MOL      0.031998
     37 H18        -2.7070   -7.1260   -1.5100 hc        1 MOL      0.031998
     38 N3          2.8840   -4.0550   -2.2900 n         1 MOL     -0.540294
     39 C13         3.7060   -3.4200   -3.3500 c3        1 MOL      0.160052
     40 C14         5.1360   -2.9640   -2.9160 c         1 MOL      0.347481
     41 O6          5.9000   -2.6500   -3.8260 o         1 MOL     -0.559282
     42 C15         2.8240   -2.3310   -4.0370 c3        1 MOL     -0.231550
     43 C16         2.3390   -1.1910   -3.1350 c         1 MOL      0.778790
     44 O7          3.0180   -0.8740   -2.1110 o         1 MOL     -0.714315
     45 O8          1.2960   -0.5690   -3.4620 o         1 MOL     -0.714315
     46 H19         2.7460   -3.4860   -1.4660 hn        1 MOL      0.409989
     47 H20         3.9100   -4.1340   -4.1460 h1        1 MOL      0.062816
     48 H21         1.9870   -2.7910   -4.5670 hc        1 MOL      0.058795
     49 H22         3.4760   -1.8320   -4.7590 hc        1 MOL      0.058795
     50 N4          5.4490   -2.8330   -1.6400 n         1 MOL      0.011843
     51 C17         6.8130   -2.5490   -1.1790 c3        1 MOL     -0.325207
     52 C18         7.1580   -1.0690   -1.4440 c         1 MOL      0.467571
     53 O9          8.3610   -0.6940   -1.5190 o         1 MOL     -0.624032
     54 H23         4.7360   -3.0500   -0.9480 hn        1 MOL      0.016742
     55 H24         7.4640   -3.1130   -1.8410 h1        1 MOL      0.146596
     56 H25         6.9050   -2.6790   -0.1060 h1        1 MOL      0.146596
     57 N5          6.1970   -0.2260   -1.8350 n         1 MOL     -0.045351
     58 C19         6.4120    1.1270   -2.3740 c3        1 MOL      0.030543
     59 C20         6.9100    2.1910   -1.3370 c         1 MOL      0.419233
     60 O10         7.3170    3.2720   -1.6890 o         1 MOL     -0.545730
     61 C21         5.1620    1.7240   -3.0580 c3        1 MOL     -0.393735
     62 C22         3.9350    1.8520   -2.1640 c         1 MOL      0.927586
     63 O11         3.9390    1.6000   -0.9770 o         1 MOL     -0.756826
     64 O12         2.9290    2.3760   -2.6940 o         1 MOL     -0.756826
     65 H26         5.2630   -0.5870   -1.9190 hn        1 MOL      0.101490
     66 H27         7.2240    1.0420   -3.1000 h1        1 MOL      0.076134
     67 H28         4.9360    1.0270   -3.8670 hc        1 MOL      0.097042
     68 H29         5.3770    2.6930   -3.5090 hc        1 MOL      0.097042
     69 N6          7.0140    1.7900   -0.0590 n         1 MOL     -0.189090
     70 C23         7.5180    2.6400    1.1180 c3        1 MOL     -0.201442
     71 C24         6.4090    3.5950    1.6550 c         1 MOL      0.571282
     72 O13         6.8130    4.4520    2.4950 o         1 MOL     -0.597469
     73 H30         6.7340    0.8230    0.0460 hn        1 MOL      0.175242
     74 H31         8.4550    3.1720    0.9580 h1        1 MOL      0.110590
     75 H32         7.7080    1.9840    1.9710 h1        1 MOL      0.110590
     76 N7          5.0950    3.4830    1.3270 n         1 MOL     -0.359645
     77 C25         3.9110    4.2780    1.6450 c3        1 MOL     -0.035169
     78 C26         2.6760    3.3330    1.9500 c         1 MOL      0.479733
     79 O14         2.6830    2.1320    1.6710 o         1 MOL     -0.506148
     80 C27         3.4190    5.1480    0.4560 c3        1 MOL      0.173359
     81 C28         4.4900    6.2130    0.1920 c3        1 MOL     -0.383526
     82 C29         3.9750    7.2900   -0.8030 c         1 MOL      0.673786
     83 N8          3.8650    7.0240   -2.0360 n         1 MOL     -0.752564
     84 O15         3.5500    8.3330   -0.3650 o         1 MOL     -0.608554
     85 H33         4.9430    2.6980    0.7160 hn        1 MOL      0.234173
     86 H34         3.9560    4.9020    2.5390 h1        1 MOL      0.074653
     87 H35         2.4340    5.4940    0.7440 hc        1 MOL      0.023322
     88 H36         3.2160    4.5630   -0.4370 hc        1 MOL      0.023322
     89 H37         5.4120    5.7390   -0.1670 hc        1 MOL      0.113832
     90 H38         4.7940    6.6650    1.1310 hc        1 MOL      0.113832
     91 H39         4.2030    6.1700   -2.4520 hn        1 MOL      0.354293
     92 H40         3.4560    7.6950   -2.6620 hn        1 MOL      0.354293
     93 N9          1.5850    3.8780    2.5110 n         1 MOL     -0.527496
     94 C30         0.2730    3.1650    2.6410 c3        1 MOL      0.230351
     95 C31        -0.6300    3.5840    1.4860 c         1 MOL      0.609064
     96 O16        -0.7620    4.7710    1.2020 o         1 MOL     -0.599231
     97 C32        -0.3180    3.3870    4.0640 c3        1 MOL      0.121011
     98 C33        -0.0490    4.7700    4.6710 c3        1 MOL     -0.197608
     99 C34        -1.8140    3.0080    4.2540 c3        1 MOL     -0.197608
    100 H41         1.6190    4.8130    2.8960 hn        1 MOL      0.282879
    101 H42         0.5170    2.1120    2.5240 h1        1 MOL     -0.020262
    102 H43         0.1640    2.6310    4.6880 hc        1 MOL      0.015173
    103 H44         1.0130    4.9780    4.7560 hc        1 MOL      0.038418
    104 H45        -0.4580    5.5540    4.0390 hc        1 MOL      0.038418
    105 H46        -0.4040    4.7900    5.7110 hc        1 MOL      0.038418
    106 H47        -2.1560    2.1200    3.7170 hc        1 MOL      0.038418
    107 H48        -2.1100    2.8870    5.2930 hc        1 MOL      0.038418
    108 H49        -2.4110    3.8200    3.8270 hc        1 MOL      0.038418
    109 N10        -1.3780    2.6020    0.8910 n         1 MOL     -0.469452
    110 C35        -2.5920    2.7820    0.0350 c3        1 MOL      0.448368
    111 C36        -3.8940    2.2980    0.7630 c         1 MOL      0.023972
    112 O17        -3.8530    1.5550    1.7750 o         1 MOL     -0.206547
    113 C37        -2.2330    2.1120   -1.3170 c3        1 MOL     -0.648527
    114 C38        -3.3840    2.0530   -2.2400 c         1 MOL      0.838406
    115 N11        -3.4640    2.9930   -3.2110 n         1 MOL     -0.802281
    116 O18        -4.2780    1.2070   -2.1270 o         1 MOL     -0.566589
    117 H50        -1.1630    1.6760    1.2420 hn        1 MOL      0.267187
    118 H51        -2.8570    3.8250   -0.1560 h1        1 MOL     -0.002015
    119 H52        -1.9150    1.0770   -1.1380 hc        1 MOL      0.201234
    120 H53        -1.4380    2.6810   -1.8000 hc        1 MOL      0.201234
    121 H54        -2.8650    3.7990   -3.1060 hn        1 MOL      0.342893
    122 H55        -4.1240    2.9930   -3.9740 hn        1 MOL      0.342893
    123 N12        -5.0910    2.7240    0.2910 n         1 MOL     -0.169209
    124 C39        -6.4590    2.3720    0.6940 c3        1 MOL      0.345610
    125 C40        -6.8860    0.9140    0.7830 c         1 MOL      0.289435
    126 O19        -7.7230    0.5630    1.6410 o         1 MOL     -0.530753
    127 C41        -7.4240    3.3350    0.0380 c3        1 MOL     -0.289475
    128 C42        -7.4280    3.3840   -1.4660 ca        1 MOL      0.432808
    129 C43        -6.7750    4.4830   -2.0980 ca        1 MOL     -0.423420
    130 C44        -7.9790    2.3750   -2.2550 ca        1 MOL     -0.423420
    131 C45        -6.6000    4.5610   -3.4780 ca        1 MOL     -0.161760
    132 C46        -7.8680    2.4910   -3.6490 ca        1 MOL     -0.161760
    133 C47        -7.2090    3.5830   -4.2770 ca        1 MOL      0.311213
    134 O20        -7.1460    3.7500   -5.6180 oh        1 MOL     -0.467609
    135 H56        -5.0790    3.2810   -0.5530 hn        1 MOL      0.062290
    136 H57        -6.5300    2.6190    1.7520 h1        1 MOL      0.003341
    137 H58        -7.2190    4.3470    0.3800 hc        1 MOL      0.050961
    138 H59        -8.4690    3.1230    0.2470 hc        1 MOL      0.050961
    139 H60        -6.1770    5.1590   -1.5060 ha        1 MOL      0.203884
    140 H61        -8.5570    1.5470   -1.8710 ha        1 MOL      0.203884
    141 H62        -6.0720    5.3500   -3.9920 ha        1 MOL      0.121881
    142 H63        -8.1520    1.6610   -4.2870 ha        1 MOL      0.121881
    143 H64        -6.7420    4.5880   -5.8420 ho        1 MOL      0.327305
    144 N13        -6.1710    0.0990    0.0100 n         1 MOL     -0.092132
    145 C48        -6.2470   -1.3500   -0.1100 c3        1 MOL     -0.254703
    146 C49        -5.4750   -2.1200    0.9490 c         1 MOL      0.442708
    147 O21        -5.7930   -3.3100    1.2180 o         1 MOL     -0.538338
    148 C50        -5.9070   -1.8730   -1.5500 c3        1 MOL      0.279509
    149 C51        -7.0050   -1.6390   -2.5930 c3        1 MOL     -0.426481
    150 C52        -8.1500   -2.6130   -2.3620 c         1 MOL      0.738349
    151 O22        -8.1260   -3.7260   -2.9660 o         1 MOL     -0.724252
    152 O23        -9.0600   -2.3220   -1.5280 o         1 MOL     -0.724252
    153 H65        -5.6370    0.5640   -0.6980 hn        1 MOL      0.214825
    154 H66        -7.2950   -1.5960    0.0040 h1        1 MOL      0.173234
    155 H67        -5.6790   -2.9350   -1.5680 hc        1 MOL     -0.026254
    156 H68        -4.9620   -1.4110   -1.8300 hc        1 MOL     -0.026254
    157 H69        -6.4660   -1.9140   -3.5010 hc        1 MOL      0.085482
    158 H70        -7.2320   -0.5730   -2.6630 hc        1 MOL      0.085482
    159 N14        -4.4930   -1.4930    1.5430 n         1 MOL     -0.178913
    160 C53        -3.6380   -1.9150    2.6450 c3        1 MOL     -0.050687
    161 C54        -4.2120   -1.3930    4.0100 c         1 MOL      0.493930
    162 O24        -4.2110   -2.0610    5.0080 o         1 MOL     -0.574498
    163 C55        -2.1970   -1.4120    2.5410 c3        1 MOL      0.053898
    164 C56        -1.5390   -2.0520    1.2450 c3        1 MOL     -0.096895
    165 C57        -0.2400   -1.4420    0.7650 c         1 MOL      0.826132
    166 O25         0.4460   -2.0810   -0.0370 o         1 MOL     -0.760331
    167 O26         0.0710   -0.2530    1.1030 o         1 MOL     -0.760331
    168 H71        -4.3660   -0.5120    1.3210 hn        1 MOL      0.113090
    169 H72        -3.7100   -3.0000    2.7210 h1        1 MOL      0.068733
    170 H73        -1.5890   -1.6140    3.4240 hc        1 MOL     -0.008678
    171 H74        -2.2710   -0.3270    2.5700 hc        1 MOL     -0.008678
    172 H75        -2.2760   -2.0570    0.4420 hc        1 MOL      0.029889
    173 H76        -1.3820   -3.0640    1.6100 hc        1 MOL      0.029889
    174 N15        -4.5920   -0.1210    4.0800 n         1 MOL     -0.102982
    175 C58        -5.1220    0.5670    5.2750 c3        1 MOL     -0.195831
    176 H77        -6.1910    0.7350    5.1540 h1        1 MOL      0.080369
    177 H78        -4.9500   -0.0510    6.1570 h1        1 MOL      0.080369
    178 H79        -4.6160    1.5240    5.3980 h1        1 MOL      0.080369
    179 H80        -4.3290    0.4540    3.2910 hn        1 MOL      0.030281
    180 Ca1         2.5350   -0.2530    0.3660 Ca        1 MOL      1.739854
    181 O27         2.2450   -0.8330    3.0220 oh        1 MOL     -0.889791
    182 O28         1.0270    1.2850   -1.2310 oh        1 MOL     -0.889791
    183 H81         2.4550   -0.2490    3.7430 ho        1 MOL      0.421252
    184 H82         1.5340    1.9110   -1.7410 ho        1 MOL      0.421252
    185 H83         1.5980   -1.4420    3.3810 ho        1 MOL      0.421252
    186 H84         0.7570    0.6150   -1.8670 ho        1 MOL      0.421252
    187 O29         5.0460   -0.7030    1.4340 oh        1 MOL     -0.889791
    188 H85         5.8250   -0.5420    1.9650 ho        1 MOL      0.421252
    189 H86         4.9220   -1.6480    1.4800 ho        1 MOL      0.421252
@<TRIPOS>BOND
     1    1    2 1   
     2    1    4 1   
     3    1    5 1   
     4    1    6 1   
     5    2    3 2   
     6    2    7 1   
     7    7    8 1   
     8    7   15 1   
     9    8    9 1   
    10    8   11 1   
    11    8   16 1   
    12    9   10 2   
    13    9   19 1   
    14   11   12 1   
    15   11   17 1   
    16   11   18 1   
    17   12   13 1   
    18   12   14 1   
    19   19   20 1   
    20   19   27 1   
    21   20   21 1   
    22   20   23 1   
    23   20   28 1   
    24   21   22 2   
    25   21   38 1   
    26   23   24 1   
    27   23   25 1   
    28   23   29 1   
    29   24   26 1   
    30   24   30 1   
    31   24   31 1   
    32   25   32 1   
    33   25   33 1   
    34   25   34 1   
    35   26   35 1   
    36   26   36 1   
    37   26   37 1   
    38   38   39 1   
    39   38   46 1   
    40   39   40 1   
    41   39   42 1   
    42   39   47 1   
    43   40   41 2   
    44   40   50 1   
    45   42   43 1   
    46   42   48 1   
    47   42   49 1   
    48   43   44 1   
    49   43   45 1   
    50   50   51 1   
    51   50   54 1   
    52   51   52 1   
    53   51   55 1   
    54   51   56 1   
    55   52   53 2   
    56   52   57 1   
    57   57   58 1   
    58   57   65 1   
    59   58   59 1   
    60   58   61 1   
    61   58   66 1   
    62   59   60 2   
    63   59   69 1   
    64   61   62 1   
    65   61   67 1   
    66   61   68 1   
    67   62   63 1   
    68   62   64 1   
    69   69   70 1   
    70   69   73 1   
    71   70   71 1   
    72   70   74 1   
    73   70   75 1   
    74   71   72 2   
    75   71   76 1   
    76   76   77 1   
    77   76   85 1   
    78   77   78 1   
    79   77   80 1   
    80   77   86 1   
    81   78   79 2   
    82   78   93 1   
    83   80   81 1   
    84   80   87 1   
    85   80   88 1   
    86   81   82 1   
    87   81   89 1   
    88   81   90 1   
    89   82   83 1   
    90   82   84 2   
    91   83   91 1   
    92   83   92 1   
    93   93   94 1   
    94   93  100 1   
    95   94   95 1   
    96   94   97 1   
    97   94  101 1   
    98   95   96 2   
    99   95  109 1   
   100   97   98 1   
   101   97   99 1   
   102   97  102 1   
   103   98  103 1   
   104   98  104 1   
   105   98  105 1   
   106   99  106 1   
   107   99  107 1   
   108   99  108 1   
   109  109  110 1   
   110  109  117 1   
   111  110  111 1   
   112  110  113 1   
   113  110  118 1   
   114  111  112 2   
   115  111  123 1   
   116  113  114 1   
   117  113  119 1   
   118  113  120 1   
   119  114  115 1   
   120  114  116 2   
   121  115  121 1   
   122  115  122 1   
   123  123  124 1   
   124  123  135 1   
   125  124  125 1   
   126  124  127 1   
   127  124  136 1   
   128  125  126 2   
   129  125  144 1   
   130  127  128 1   
   131  127  137 1   
   132  127  138 1   
   133  128  129 ar  
   134  128  130 ar  
   135  129  131 ar  
   136  129  139 1   
   137  130  132 ar  
   138  130  140 1   
   139  131  133 ar  
   140  131  141 1   
   141  132  133 ar  
   142  132  142 1   
   143  133  134 1   
   144  134  143 1   
   145  144  145 1   
   146  144  153 1   
   147  145  146 1   
   148  145  148 1   
   149  145  154 1   
   150  146  147 2   
   151  146  159 1   
   152  148  149 1   
   153  148  155 1   
   154  148  156 1   
   155  149  150 1   
   156  149  157 1   
   157  149  158 1   
   158  150  151 1   
   159  150  152 1   
   160  159  160 1   
   161  159  168 1   
   162  160  161 1   
   163  160  163 1   
   164  160  169 1   
   165  161  162 2   
   166  161  174 1   
   167  163  164 1   
   168  163  170 1   
   169  163  171 1   
   170  164  165 1   
   171  164  172 1   
   172  164  173 1   
   173  165  166 1   
   174  165  167 1   
   175  174  175 1   
   176  174  179 1   
   177  175  176 1   
   178  175  177 1   
   179  175  178 1   
   180  181  183 1   
   181  181  185 1   
   182  182  184 1   
   183  182  186 1   
   184  187  188 1   
   185  187  189 1   
@<TRIPOS>SUBSTRUCTURE
     1 MOL         1 TEMP              0 ****  ****    0 ROOT
