@<TRIPOS>MOLECULE
MOL
  172   171     1     0     0
SMALL
resp


@<TRIPOS>ATOM
      1 C1          0.3460   -2.5480    6.1190 c3        1 MOL     -0.487464
      2 C2          0.6930   -2.4910    4.6090 c         1 MOL      0.776241
      3 O1         -0.0040   -3.0600    3.7860 o         1 MOL     -0.595062
      4 H1          1.0180   -3.2440    6.6200 hc        1 MOL      0.119537
      5 H2          0.4600   -1.5560    6.5560 hc        1 MOL      0.119537
      6 H3         -0.6830   -2.8840    6.2430 hc        1 MOL      0.119537
      7 N1          1.6840   -1.7450    4.2180 n         1 MOL     -0.613479
      8 C3          2.2650   -1.7190    2.8560 c3        1 MOL      0.227635
      9 C4          2.7020   -3.0910    2.3760 c         1 MOL      0.447839
     10 O2          3.5970   -3.7170    2.9780 o         1 MOL     -0.588476
     11 C5          3.3840   -0.6820    2.8040 c3        1 MOL     -0.294788
     12 C6          3.9830   -0.6330    1.4330 c         1 MOL      0.945756
     13 O3          3.1980   -0.8520    0.4650 o         1 MOL     -0.708866
     14 O4          5.1860   -0.2850    1.3560 o         1 MOL     -0.708866
     15 H4          2.1080   -1.1420    4.9150 hn        1 MOL      0.304988
     16 H5          1.5140   -1.4110    2.1360 h1        1 MOL     -0.014791
     17 H6          4.1820   -1.0510    3.4510 hc        1 MOL      0.048403
     18 H7          3.1160    0.3370    3.0830 hc        1 MOL      0.048403
     19 N2          2.3230   -3.5130    1.1210 n         1 MOL     -0.152561
     20 C7          2.7070   -4.8470    0.6090 c3        1 MOL      0.289770
     21 C8          3.4450   -4.7210   -0.6940 c         1 MOL      0.246095
     22 O5          3.6890   -5.7640   -1.3180 o         1 MOL     -0.542274
     23 C9          1.3820   -5.5520    0.5860 c3        1 MOL     -0.199213
     24 H8          1.6550   -2.9290    0.6250 hn        1 MOL      0.072620
     25 H9          3.3350   -5.4080    1.3060 h1        1 MOL      0.006417
     26 H10         1.1310   -5.6350    1.6490 hc        1 MOL      0.046409
     27 H11         0.5600   -5.0120    0.1050 hc        1 MOL      0.046409
     28 H12         1.3550   -6.5100    0.0660 hc        1 MOL      0.046409
     29 N3          3.8490   -3.5400   -1.1840 n         1 MOL      0.022375
     30 C10         4.6700   -3.4150   -2.3530 c3        1 MOL      0.107743
     31 C11         6.1560   -3.2050   -1.9590 c         1 MOL      0.299906
     32 O6          7.0820   -3.4370   -2.7250 o         1 MOL     -0.520315
     33 C12         4.1380   -2.5390   -3.4300 c3        1 MOL     -0.002108
     34 C13         2.5920   -2.4820   -3.6110 c         1 MOL      0.599611
     35 O7          2.0780   -1.3860   -3.2970 o         1 MOL     -0.668521
     36 O8          1.9350   -3.3860   -4.1520 o         1 MOL     -0.668521
     37 H13         3.6180   -2.6640   -0.7260 hn        1 MOL      0.015073
     38 H14         4.6100   -4.3860   -2.8500 h1        1 MOL      0.056073
     39 H15         4.6690   -2.9650   -4.2870 hc        1 MOL     -0.022690
     40 H16         4.5280   -1.5290   -3.2720 hc        1 MOL     -0.022690
     41 N4          6.4100   -2.7370   -0.7390 n         1 MOL     -0.134501
     42 C14         7.7310   -2.2970   -0.2080 c3        1 MOL      0.020102
     43 C15         8.1080   -0.8360   -0.6780 c         1 MOL      0.524334
     44 O9          9.3110   -0.6470   -0.8610 o         1 MOL     -0.573826
     45 H17         5.5740   -2.6590   -0.1690 hn        1 MOL      0.051401
     46 H18         8.4910   -3.0450   -0.4470 h1        1 MOL      0.045074
     47 H19         7.6920   -2.2380    0.8870 h1        1 MOL      0.045074
     48 N5          7.1610    0.1290   -0.8580 n         1 MOL     -0.331402
     49 C16         7.2480    1.4260   -1.4590 c3        1 MOL      0.127219
     50 C17         6.9740    2.5600   -0.5060 c         1 MOL      0.309027
     51 O10         7.3560    3.7460   -0.7350 o         1 MOL     -0.549468
     52 C18         6.2950    1.4210   -2.7070 c3        1 MOL     -0.285088
     53 C19         4.8530    1.6920   -2.5030 c         1 MOL      0.594940
     54 N6          4.2890    2.7750   -2.9620 n         1 MOL     -0.655139
     55 O11         4.1020    1.0230   -1.8170 o         1 MOL     -0.649383
     56 H20         6.2340   -0.1200   -0.5500 hn        1 MOL      0.254675
     57 H21         8.2440    1.6190   -1.8680 h1        1 MOL      0.081430
     58 H22         6.5360    0.5000   -3.2450 hc        1 MOL      0.099010
     59 H23         6.6170    2.2280   -3.3810 hc        1 MOL      0.099010
     60 H24         4.8620    3.3710   -3.5480 hn        1 MOL      0.315262
     61 H25         3.3010    2.8950   -2.8080 hn        1 MOL      0.315262
     62 N7          6.3380    2.2180    0.6150 n         1 MOL     -0.029761
     63 C20         6.1950    3.1040    1.8050 c3        1 MOL     -0.219498
     64 C21         4.9050    3.8840    1.9090 c         1 MOL      0.590813
     65 O12         4.6860    4.6670    2.8420 o         1 MOL     -0.593556
     66 H26         6.1080    1.2590    0.8100 hn        1 MOL      0.110457
     67 H27         7.0000    3.8430    1.8100 h1        1 MOL      0.109660
     68 H28         6.3430    2.4990    2.6960 h1        1 MOL      0.109660
     69 N8          4.0150    3.7250    0.9500 n         1 MOL     -0.293455
     70 C22         2.6940    4.2580    1.1020 c3        1 MOL     -0.225082
     71 C23         1.7120    3.1340    0.9770 c         1 MOL      0.976153
     72 O13         1.9710    2.0500    0.3090 o         1 MOL     -0.791181
     73 C24         2.5520    5.2400   -0.0890 c3        1 MOL      0.313432
     74 C25         3.3170    6.5200    0.2530 c3        1 MOL     -0.384451
     75 O14         2.7460    4.7620   -1.3870 oh        1 MOL     -0.570700
     76 H29         4.1880    3.0040    0.2600 hn        1 MOL      0.214834
     77 H30         2.5270    4.7310    2.0710 h1        1 MOL      0.140161
     78 H31         1.5310    5.6160   -0.0190 h1        1 MOL      0.025731
     79 H32         3.6180    5.0290   -1.6690 ho        1 MOL      0.392549
     80 H33         3.1490    7.2580   -0.5360 hc        1 MOL      0.102771
     81 H34         2.9910    7.0050    1.1640 hc        1 MOL      0.102771
     82 H35         4.3840    6.3490    0.4110 hc        1 MOL      0.102771
     83 N9          0.6560    3.2820    1.6830 n         1 MOL     -0.720508
     84 C26        -0.4790    2.3890    1.6850 c3        1 MOL     -0.061117
     85 C27        -1.3950    2.7960    0.5440 c         1 MOL      0.639522
     86 O15        -1.7250    3.9680    0.3850 o         1 MOL     -0.593586
     87 C28        -1.2200    2.4250    3.0270 c3        1 MOL      0.333129
     88 C29        -0.3080    2.2550    4.2700 c3        1 MOL      0.244035
     89 C30        -2.2860    1.2650    3.0890 c3        1 MOL     -0.421328
     90 C31        -0.9760    2.6380    5.6570 c3        1 MOL     -0.368313
     91 H36         0.3590    4.1590    2.1000 hn        1 MOL      0.315714
     92 H37        -0.1740    1.3480    1.5910 h1        1 MOL      0.096837
     93 H38        -1.6820    3.3970    3.2030 hc        1 MOL     -0.055713
     94 H39         0.4930    2.9910    4.2380 hc        1 MOL     -0.042466
     95 H40         0.2130    1.3010    4.3830 hc        1 MOL     -0.042466
     96 H41        -2.9600    1.3190    3.9490 hc        1 MOL      0.076808
     97 H42        -2.9310    1.4200    2.2210 hc        1 MOL      0.076808
     98 H43        -1.7740    0.3080    3.0860 hc        1 MOL      0.076808
     99 H44        -1.8940    2.0480    5.7050 hc        1 MOL      0.074280
    100 H45        -0.2890    2.4040    6.4640 hc        1 MOL      0.074280
    101 H46        -1.3240    3.6700    5.6490 hc        1 MOL      0.074280
    102 N10        -1.9670    1.8100   -0.1900 n         1 MOL     -0.555542
    103 C32        -3.0740    2.0370   -1.1630 c3        1 MOL      0.108640
    104 C33        -4.3010    1.4160   -0.6770 c         1 MOL      0.522044
    105 O16        -4.3150    0.6940    0.3160 o         1 MOL     -0.292670
    106 C34        -2.6720    1.4560   -2.4680 c3        1 MOL     -0.298644
    107 C35        -1.2350    1.5900   -2.9710 c         1 MOL      0.914105
    108 O17        -0.9400    2.4450   -3.8160 o         1 MOL     -0.748703
    109 O18        -0.5110    0.6410   -2.7070 o         1 MOL     -0.748703
    110 H47        -1.8160    0.8420    0.0340 hn        1 MOL      0.287005
    111 H48        -3.2200    3.1010   -1.3450 h1        1 MOL      0.075839
    112 H49        -3.3380    1.8340   -3.2430 hc        1 MOL      0.055434
    113 H50        -2.8410    0.3990   -2.2720 hc        1 MOL      0.055434
    114 N11        -5.4420    1.6490   -1.4230 n         1 MOL     -0.749507
    115 C36        -6.8090    1.2910   -0.9390 c3        1 MOL      0.419790
    116 C37        -7.0860   -0.1860   -0.6140 c         1 MOL      0.278486
    117 O19        -7.4880   -0.4420    0.5350 o         1 MOL     -0.493054
    118 C38        -7.8690    1.8520   -1.8670 c3        1 MOL     -0.190363
    119 C39        -9.3460    1.6830   -1.6150 ca        1 MOL      0.128169
    120 C40        -9.9150    2.4550   -0.6140 ca        1 MOL     -0.194728
    121 C41       -10.1800    0.8560   -2.3400 ca        1 MOL     -0.194728
    122 C42       -11.2580    2.3160   -0.2730 ca        1 MOL     -0.050675
    123 C43       -11.5800    0.8160   -2.0900 ca        1 MOL     -0.050675
    124 C44       -12.0990    1.5300   -1.0000 ca        1 MOL     -0.168412
    125 H51        -5.3950    1.8320   -2.4120 hn        1 MOL      0.343820
    126 H52        -6.9820    1.9170   -0.0610 h1        1 MOL      0.031174
    127 H53        -7.6900    1.4130   -2.8400 hc        1 MOL      0.053154
    128 H54        -7.7320    2.9280   -2.0110 hc        1 MOL      0.053154
    129 H55        -9.3010    3.1420   -0.0450 ha        1 MOL      0.115961
    130 H56        -9.7710    0.2870   -3.1610 ha        1 MOL      0.115961
    131 H57       -11.7050    2.9770    0.4560 ha        1 MOL      0.091720
    132 H58       -12.1360    0.1980   -2.7750 ha        1 MOL      0.091720
    133 H59       -13.1290    1.5270   -0.6650 ha        1 MOL      0.113854
    134 N12        -6.7590   -1.1170   -1.5330 n         1 MOL     -0.034813
    135 C45        -6.8700   -2.5280   -1.1420 c3        1 MOL      0.076432
    136 C46        -6.0750   -2.8810    0.1150 c         1 MOL      0.322870
    137 O20        -6.4500   -3.8690    0.8010 o         1 MOL     -0.511468
    138 C47        -6.4070   -3.3420   -2.3820 c3        1 MOL     -0.163235
    139 C48        -5.6570   -2.2890   -3.2060 c3        1 MOL     -0.131248
    140 C49        -6.4040   -0.9770   -2.8960 c3        1 MOL     -0.069646
    141 H60        -7.9080   -2.7950   -0.9590 h1        1 MOL      0.058215
    142 H61        -5.8050   -4.1970   -2.0700 hc        1 MOL      0.079249
    143 H62        -7.2580   -3.6380   -2.9990 hc        1 MOL      0.079249
    144 H63        -4.6690   -2.2650   -2.7390 hc        1 MOL      0.091776
    145 H64        -5.3140   -2.4630   -4.2240 hc        1 MOL      0.091776
    146 H65        -5.7590   -0.1150   -3.0600 h1        1 MOL      0.037082
    147 H66        -7.2260   -0.7310   -3.5650 h1        1 MOL      0.037082
    148 N13        -4.8980   -2.3330    0.3240 n         1 MOL     -0.202887
    149 C50        -4.0170   -2.4340    1.5300 c3        1 MOL     -0.144587
    150 C51        -4.6210   -1.8750    2.8010 c         1 MOL      0.435237
    151 O21        -4.4340   -2.4940    3.8600 o         1 MOL     -0.555463
    152 C52        -2.6290   -1.8070    1.3270 c3        1 MOL     -0.157459
    153 C53        -1.7020   -2.5150    0.2650 c3        1 MOL      0.057496
    154 C54        -0.4770   -1.6880   -0.0900 c         1 MOL      0.681544
    155 O22        -0.5480   -0.4460    0.0450 o         1 MOL     -0.699395
    156 O23         0.5320   -2.1740   -0.6620 o         1 MOL     -0.699395
    157 H67        -4.6600   -1.6140   -0.3500 hn        1 MOL      0.186124
    158 H68        -3.7980   -3.4650    1.8190 h1        1 MOL      0.147504
    159 H69        -1.9890   -1.9460    2.1910 hc        1 MOL      0.102231
    160 H70        -2.6670   -0.7340    1.1390 hc        1 MOL      0.102231
    161 H71        -2.1420   -2.6240   -0.7300 hc        1 MOL      0.011163
    162 H72        -1.3670   -3.5170    0.5480 hc        1 MOL      0.011163
    163 N14        -5.4430   -0.8090    2.6780 n         1 MOL      0.056294
    164 C55        -6.2270   -0.1410    3.7130 c3        1 MOL     -0.147227
    165 H73        -5.8040   -0.3670    4.6910 h1        1 MOL      0.057024
    166 H74        -6.2050    0.9360    3.5480 h1        1 MOL      0.057024
    167 H75        -7.2580   -0.4940    3.6730 h1        1 MOL      0.057024
    168 H76        -5.4360   -0.3630    1.7660 hn        1 MOL      0.003047
    169 Ca1         1.5940    0.1300   -1.2690 Ca        1 MOL      1.727066
    170 O24         1.5190    2.8470   -2.6860 oh        1 MOL     -0.814042
    171 H77         0.7150    2.9910   -3.1900 ho        1 MOL      0.389851
    172 H78         1.7760    3.7250   -2.3970 ho        1 MOL      0.389851
@<TRIPOS>BOND
     1    1    2 1   
     2    1    4 1   
     3    1    5 1   
     4    1    6 1   
     5    2    3 2   
     6    2    7 1   
     7    7    8 1   
     8    7   15 1   
     9    8    9 1   
    10    8   11 1   
    11    8   16 1   
    12    9   10 2   
    13    9   19 1   
    14   11   12 1   
    15   11   17 1   
    16   11   18 1   
    17   12   13 1   
    18   12   14 1   
    19   19   20 1   
    20   19   24 1   
    21   20   21 1   
    22   20   23 1   
    23   20   25 1   
    24   21   22 2   
    25   21   29 1   
    26   23   26 1   
    27   23   27 1   
    28   23   28 1   
    29   29   30 1   
    30   29   37 1   
    31   30   31 1   
    32   30   33 1   
    33   30   38 1   
    34   31   32 2   
    35   31   41 1   
    36   33   34 1   
    37   33   39 1   
    38   33   40 1   
    39   34   35 1   
    40   34   36 1   
    41   41   42 1   
    42   41   45 1   
    43   42   43 1   
    44   42   46 1   
    45   42   47 1   
    46   43   44 2   
    47   43   48 1   
    48   48   49 1   
    49   48   56 1   
    50   49   50 1   
    51   49   52 1   
    52   49   57 1   
    53   50   51 2   
    54   50   62 1   
    55   52   53 1   
    56   52   58 1   
    57   52   59 1   
    58   53   54 1   
    59   53   55 2   
    60   54   60 1   
    61   54   61 1   
    62   62   63 1   
    63   62   66 1   
    64   63   64 1   
    65   63   67 1   
    66   63   68 1   
    67   64   65 2   
    68   64   69 1   
    69   69   70 1   
    70   69   76 1   
    71   70   71 1   
    72   70   73 1   
    73   70   77 1   
    74   71   72 2   
    75   71   83 1   
    76   73   74 1   
    77   73   75 1   
    78   73   78 1   
    79   74   80 1   
    80   74   81 1   
    81   74   82 1   
    82   75   79 1   
    83   83   84 1   
    84   83   91 1   
    85   84   85 1   
    86   84   87 1   
    87   84   92 1   
    88   85   86 2   
    89   85  102 1   
    90   87   88 1   
    91   87   89 1   
    92   87   93 1   
    93   88   90 1   
    94   88   94 1   
    95   88   95 1   
    96   89   96 1   
    97   89   97 1   
    98   89   98 1   
    99   90   99 1   
   100   90  100 1   
   101   90  101 1   
   102  102  103 1   
   103  102  110 1   
   104  103  104 1   
   105  103  106 1   
   106  103  111 1   
   107  104  105 2   
   108  104  114 1   
   109  106  107 1   
   110  106  112 1   
   111  106  113 1   
   112  107  108 1   
   113  107  109 1   
   114  114  115 1   
   115  114  125 1   
   116  115  116 1   
   117  115  118 1   
   118  115  126 1   
   119  116  117 2   
   120  116  134 1   
   121  118  119 1   
   122  118  127 1   
   123  118  128 1   
   124  119  120 ar  
   125  119  121 ar  
   126  120  122 ar  
   127  120  129 1   
   128  121  123 ar  
   129  121  130 1   
   130  122  124 ar  
   131  122  131 1   
   132  123  124 ar  
   133  123  132 1   
   134  124  133 1   
   135  134  135 1   
   136  134  140 1   
   137  135  136 1   
   138  135  138 1   
   139  135  141 1   
   140  136  137 2   
   141  136  148 1   
   142  138  139 1   
   143  138  142 1   
   144  138  143 1   
   145  139  140 1   
   146  139  144 1   
   147  139  145 1   
   148  140  146 1   
   149  140  147 1   
   150  148  149 1   
   151  148  157 1   
   152  149  150 1   
   153  149  152 1   
   154  149  158 1   
   155  150  151 2   
   156  150  163 1   
   157  152  153 1   
   158  152  159 1   
   159  152  160 1   
   160  153  154 1   
   161  153  161 1   
   162  153  162 1   
   163  154  155 1   
   164  154  156 1   
   165  163  164 1   
   166  163  168 1   
   167  164  165 1   
   168  164  166 1   
   169  164  167 1   
   170  170  171 1   
   171  170  172 1   
@<TRIPOS>SUBSTRUCTURE
     1 MOL         1 TEMP              0 ****  ****    0 ROOT
