@<TRIPOS>MOLECULE
MOL
  183   181     1     0     0
SMALL
resp


@<TRIPOS>ATOM
      1 C1         -0.7880    2.1910    5.9430 c3        1 MOL     -0.290948
      2 C2         -1.0700    1.8930    4.4370 c         1 MOL      0.683632
      3 O1         -0.2390    2.2710    3.5950 o         1 MOL     -0.561744
      4 H1         -0.8220    3.2670    6.1120 hc        1 MOL      0.070413
      5 H2         -1.5450    1.7030    6.5580 hc        1 MOL      0.070413
      6 H3          0.1980    1.8110    6.2120 hc        1 MOL      0.070413
      7 N1         -2.1900    1.2190    4.0970 n         1 MOL     -0.541133
      8 C3         -2.7000    1.1780    2.7650 c3        1 MOL      0.184888
      9 C4         -3.2630    2.4370    2.3850 c         1 MOL      0.422750
     10 O2         -4.2270    2.8560    3.0580 o         1 MOL     -0.557690
     11 C5         -3.7270    0.0400    2.6590 c3        1 MOL     -0.442098
     12 C6         -4.5600    0.0660    1.3690 c         1 MOL      0.804512
     13 O3         -5.6810   -0.4540    1.3830 o         1 MOL     -0.685889
     14 O4         -4.0690    0.6120    0.3380 o         1 MOL     -0.685889
     15 H4         -2.7770    0.9120    4.8620 hn        1 MOL      0.309259
     16 H5         -1.8350    0.9380    2.1440 h1        1 MOL      0.019035
     17 H6         -4.4110    0.0770    3.5130 hc        1 MOL      0.103216
     18 H7         -3.2610   -0.9450    2.6670 hc        1 MOL      0.103216
     19 N2         -2.7630    3.1910    1.3890 n         1 MOL     -0.220773
     20 C7         -3.2680    4.5020    1.0440 c3        1 MOL     -0.163894
     21 C8         -4.5200    4.4680    0.1550 c         1 MOL      0.518315
     22 O5         -5.4110    5.2630    0.2710 o         1 MOL     -0.579486
     23 C9         -2.0890    5.4310    0.6120 c3        1 MOL      0.267896
     24 C10        -0.9280    5.3470    1.6100 c3        1 MOL      0.290087
     25 C11        -2.6190    6.8390    0.3690 c3        1 MOL     -0.400300
     26 C12         0.3960    5.9130    0.9940 c3        1 MOL     -0.328571
     27 H8         -1.8890    2.8560    1.0010 hn        1 MOL      0.223383
     28 H9         -3.6980    4.9720    1.9320 h1        1 MOL      0.077995
     29 H10        -1.6580    5.0180   -0.3070 hc        1 MOL     -0.005776
     30 H11        -0.7060    4.3550    2.0000 hc        1 MOL     -0.075676
     31 H12        -1.1990    5.9380    2.4780 hc        1 MOL     -0.075676
     32 H13        -3.1220    6.8010   -0.5980 hc        1 MOL      0.085622
     33 H14        -3.2820    7.1550    1.1750 hc        1 MOL      0.085622
     34 H15        -1.8710    7.6280    0.2730 hc        1 MOL      0.085622
     35 H16         0.5680    5.2190    0.1640 hc        1 MOL      0.060455
     36 H17         0.3130    6.9650    0.7280 hc        1 MOL      0.060455
     37 H18         1.1950    5.6880    1.6960 hc        1 MOL      0.060455
     38 N3         -4.6720    3.4980   -0.7390 n         1 MOL     -0.202487
     39 C13        -5.8130    3.3380   -1.6810 c3        1 MOL     -0.090963
     40 C14        -7.0950    2.6220   -1.1820 c         1 MOL      0.446513
     41 O6         -8.1950    2.7070   -1.7920 o         1 MOL     -0.570590
     42 C15        -5.3590    2.5190   -2.9460 c3        1 MOL     -0.044015
     43 C16        -3.9230    2.5890   -3.3330 c         1 MOL      0.680910
     44 O7         -3.1470    1.7770   -2.8290 o         1 MOL     -0.700503
     45 O8         -3.5110    3.4800   -4.1000 o         1 MOL     -0.700503
     46 H19        -4.0440    2.7180   -0.6480 hn        1 MOL      0.116115
     47 H20        -6.1110    4.2860   -2.1320 h1        1 MOL      0.119260
     48 H21        -5.9660    2.8490   -3.7790 hc        1 MOL     -0.002965
     49 H22        -5.5890    1.4810   -2.7070 hc        1 MOL     -0.002965
     50 N4         -7.0240    2.0460   -0.0210 n         1 MOL     -0.290770
     51 C17        -8.1820    1.2340    0.4910 c3        1 MOL     -0.120361
     52 C18        -8.1960   -0.2190   -0.1510 c         1 MOL      0.461727
     53 O9         -9.2390   -0.8540   -0.1010 o         1 MOL     -0.611335
     54 H23        -6.1340    1.8890    0.4400 hn        1 MOL      0.294183
     55 H24        -9.1030    1.7500    0.2480 h1        1 MOL      0.100411
     56 H25        -8.1650    1.2340    1.5820 h1        1 MOL      0.100411
     57 N5         -7.2070   -0.6700   -0.8750 n         1 MOL     -0.014309
     58 C19        -7.2180   -1.9270   -1.6420 c3        1 MOL     -0.175969
     59 C20        -7.1040   -3.1740   -0.7140 c         1 MOL      0.500234
     60 O10        -7.2540   -4.3120   -1.1510 o         1 MOL     -0.571935
     61 C21        -6.3020   -1.9240   -2.8840 c3        1 MOL     -0.089706
     62 C22        -4.8280   -1.7050   -2.5830 c         1 MOL      0.657554
     63 O11        -4.1220   -1.1890   -3.4880 o         1 MOL     -0.686698
     64 O12        -4.3920   -1.9540   -1.3980 o         1 MOL     -0.686698
     65 H26        -6.3400   -0.1490   -0.8330 hn        1 MOL      0.056262
     66 H27        -8.2240   -2.0530   -2.0290 h1        1 MOL      0.118231
     67 H28        -6.6510   -1.1440   -3.5660 hc        1 MOL      0.041538
     68 H29        -6.3810   -2.8270   -3.4960 hc        1 MOL      0.041538
     69 N6         -6.7910   -3.0030    0.5870 n         1 MOL     -0.259524
     70 C23        -6.4970   -4.1230    1.5170 c3        1 MOL     -0.170344
     71 C24        -5.1150   -4.7810    1.3300 c         1 MOL      0.604723
     72 O13        -5.0680   -5.9120    1.7790 o         1 MOL     -0.608134
     73 H30        -6.5480   -2.0540    0.8370 hn        1 MOL      0.242760
     74 H31        -7.2140   -4.9280    1.3690 h1        1 MOL      0.085687
     75 H32        -6.5650   -3.8190    2.5560 h1        1 MOL      0.085687
     76 N7         -4.1370   -4.1250    0.7600 n         1 MOL     -0.292322
     77 C25        -2.7370   -4.5240    0.7930 c3        1 MOL      0.009679
     78 C26        -1.8200   -3.2950    1.0580 c         1 MOL      0.566806
     79 O14        -2.0880   -2.1650    0.7910 o         1 MOL     -0.565334
     80 C27        -2.3500   -5.4430   -0.3490 c3        1 MOL      0.106884
     81 C28        -2.3920   -4.9900   -1.8240 c3        1 MOL     -0.243694
     82 C29        -1.5380   -3.7830   -2.3420 c         1 MOL      0.460054
     83 N8         -1.0250   -3.9280   -3.5120 n         1 MOL     -0.668850
     84 O15        -1.4200   -2.6330   -1.8180 o         1 MOL     -0.491968
     85 H33        -4.2990   -3.2450    0.2880 hn        1 MOL      0.219762
     86 H34        -2.5730   -5.1020    1.7060 h1        1 MOL      0.032148
     87 H35        -2.7420   -6.4570   -0.2700 hc        1 MOL     -0.010730
     88 H36        -1.2940   -5.6230   -0.1930 hc        1 MOL     -0.010730
     89 H37        -3.4350   -4.8100   -2.0710 hc        1 MOL      0.101575
     90 H38        -2.1560   -5.8100   -2.4880 hc        1 MOL      0.101575
     91 H39        -1.0910   -4.8370   -3.9530 hn        1 MOL      0.338287
     92 H40        -0.5300   -3.1450   -3.9200 hn        1 MOL      0.338287
     93 N9         -0.5980   -3.6240    1.6280 n         1 MOL     -0.467915
     94 C30         0.5750   -2.7600    1.9540 c3        1 MOL     -0.014730
     95 C31         1.7170   -3.1700    0.9670 c         1 MOL      0.523212
     96 O16         2.2700   -4.2640    1.1890 o         1 MOL     -0.593927
     97 C32         0.9170   -2.8030    3.4890 c3        1 MOL      0.205983
     98 C33         2.2270   -2.1160    3.8010 c3        1 MOL     -0.361171
     99 C34        -0.2100   -2.1240    4.2920 c3        1 MOL     -0.361171
    100 H41        -0.4720   -4.6150    1.7490 hn        1 MOL      0.269259
    101 H42         0.2660   -1.7420    1.7340 h1        1 MOL      0.209954
    102 H43         1.0050   -3.8470    3.7910 hc        1 MOL     -0.017979
    103 H44         3.0070   -2.8190    3.5240 hc        1 MOL      0.084503
    104 H45         2.2270   -1.1430    3.3200 hc        1 MOL      0.084503
    105 H46         2.2800   -1.9020    4.8690 hc        1 MOL      0.084503
    106 H47        -0.2240   -2.4030    5.3440 hc        1 MOL      0.084503
    107 H48         0.0720   -1.0690    4.3050 hc        1 MOL      0.084503
    108 H49        -1.1290   -2.4220    3.7810 hc        1 MOL      0.084503
    109 N10         2.0340   -2.4530   -0.0790 n         1 MOL     -0.370256
    110 C35         3.2930   -2.6720   -0.8380 c3        1 MOL      0.245146
    111 C36         4.4300   -1.8920   -0.1000 c         1 MOL      0.153282
    112 O17         4.2940   -1.2900    0.9380 o         1 MOL     -0.148280
    113 C37         3.1050   -2.2750   -2.3330 c3        1 MOL     -0.513200
    114 C38         3.3300   -0.8300   -2.7810 c         1 MOL      0.677959
    115 N11         2.5000    0.0880   -2.3900 n         1 MOL     -0.878004
    116 O18         4.3730   -0.5050   -3.3530 o         1 MOL     -0.551743
    117 H50         1.6290   -1.5400   -0.1850 hn        1 MOL      0.218853
    118 H51         3.5220   -3.7330   -0.8870 h1        1 MOL      0.064999
    119 H52         2.0470   -2.3730   -2.6110 hc        1 MOL      0.147857
    120 H53         3.6480   -2.9060   -3.0350 hc        1 MOL      0.147857
    121 H54         1.5990   -0.0960   -1.9700 hn        1 MOL      0.438823
    122 H55         2.6430    0.9990   -2.8130 hn        1 MOL      0.438823
    123 N12         5.5990   -2.1180   -0.6580 n         1 MOL     -0.353191
    124 C39         6.9170   -1.7810   -0.1010 c3        1 MOL      0.274657
    125 C40         6.9890   -0.2590    0.1740 c         1 MOL      0.409249
    126 O19         7.5900    0.2200    1.0840 o         1 MOL     -0.479987
    127 C41         8.0130   -2.4120   -0.8890 c3        1 MOL     -0.349872
    128 C42         9.4000   -1.8320   -0.4920 ca        1 MOL     -0.087739
    129 C43        10.1010   -2.4170    0.5880 ca        1 MOL      0.004062
    130 C44        10.0520   -0.8310   -1.2310 ca        1 MOL      0.004062
    131 C45        11.3740   -2.0310    0.8980 ca        1 MOL     -0.377076
    132 C46        11.4310   -0.4730   -0.9740 ca        1 MOL     -0.377076
    133 C47        12.0590   -1.0820    0.1530 ca        1 MOL      0.449044
    134 O20        13.3460   -0.6910    0.4620 oh        1 MOL     -0.569929
    135 H56         5.6680   -2.6480   -1.5200 hn        1 MOL      0.242615
    136 H57         6.9200   -2.2180    0.9010 h1        1 MOL      0.020271
    137 H58         7.8970   -2.2580   -1.9620 hc        1 MOL      0.130996
    138 H59         7.9530   -3.4880   -0.6730 hc        1 MOL      0.130996
    139 H60         9.6460   -3.2180    1.1580 ha        1 MOL      0.100450
    140 H61         9.5640   -0.4140   -2.0910 ha        1 MOL      0.100450
    141 H62        11.8090   -2.4010    1.8090 ha        1 MOL      0.165521
    142 H63        12.0030    0.2300   -1.5520 ha        1 MOL      0.165521
    143 H64        13.5920    0.0680   -0.0680 ho        1 MOL      0.393127
    144 N13         6.5100    0.4840   -0.8540 n         1 MOL     -0.254036
    145 C48         6.3050    1.9760   -0.6760 c3        1 MOL      0.001530
    146 C49         5.4040    2.4750    0.3960 c         1 MOL      0.274043
    147 O21         5.6730    3.4970    0.9490 o         1 MOL     -0.492519
    148 C50         5.7710    2.6040   -1.9770 c3        1 MOL     -0.044661
    149 C51         6.7130    2.3180   -3.2170 c3        1 MOL     -0.251824
    150 C52         6.2910    3.0580   -4.4330 c         1 MOL      0.700405
    151 O22         6.9050    4.1500   -4.7830 o         1 MOL     -0.738921
    152 O23         5.3450    2.6140   -5.1020 o         1 MOL     -0.738921
    153 H65         6.1350    0.0280   -1.6720 hn        1 MOL      0.179136
    154 H66         7.2380    2.4730   -0.4240 h1        1 MOL      0.090363
    155 H67         5.6210    3.6770   -1.8800 hc        1 MOL      0.062850
    156 H68         4.8650    2.0510   -2.2140 hc        1 MOL      0.062850
    157 H69         6.6780    1.2370   -3.3400 hc        1 MOL      0.042856
    158 H70         7.7220    2.6230   -2.9400 hc        1 MOL      0.042856
    159 N14         4.3200    1.7580    0.6490 n         1 MOL      0.020469
    160 C53         3.3260    2.1140    1.6640 c3        1 MOL     -0.158590
    161 C54         3.8300    1.7010    3.0080 c         1 MOL      0.538919
    162 O24         3.6180    2.3690    3.9780 o         1 MOL     -0.574087
    163 C55         2.0350    1.2240    1.3910 c3        1 MOL      0.233283
    164 C56         1.2980    1.8200    0.2000 c3        1 MOL     -0.156644
    165 C57         0.1270    1.0690   -0.2530 c         1 MOL      0.751572
    166 O25        -1.0050    1.5570   -0.2840 o         1 MOL     -0.761471
    167 O26         0.2490   -0.0570   -0.7110 o         1 MOL     -0.761471
    168 H71         3.9710    1.0670   -0.0110 hn        1 MOL      0.010045
    169 H72         3.1010    3.1730    1.5350 h1        1 MOL      0.119707
    170 H73         1.2970    1.2870    2.1890 hc        1 MOL     -0.021510
    171 H74         2.4510    0.2240    1.2470 hc        1 MOL     -0.021510
    172 H75         1.9150    1.9920   -0.6730 hc        1 MOL      0.027715
    173 H76         0.9470    2.7950    0.5210 hc        1 MOL      0.027715
    174 N15         4.5640    0.5730    3.0400 n         1 MOL     -0.116312
    175 C58         5.3260    0.0160    4.2210 c3        1 MOL     -0.273970
    176 H77         5.5600    0.8220    4.9150 h1        1 MOL      0.095617
    177 H78         4.7160   -0.7320    4.7280 h1        1 MOL      0.095617
    178 H79         6.2510   -0.4440    3.8740 h1        1 MOL      0.095617
    179 H80         4.4630   -0.0420    2.2480 hn        1 MOL      0.025374
    180 Ca1        -2.4690   -0.2580   -1.4040 Ca        1 MOL      1.735516
    181 O27        -1.0260   -0.3040   -3.6660 oh        1 MOL     -0.829190
    182 H81        -1.0170    0.3980   -4.3120 ho        1 MOL      0.404138
    183 H82        -0.4110   -0.9500   -4.0230 ho        1 MOL      0.404138
@<TRIPOS>BOND
     1    1    2 1   
     2    1    4 1   
     3    1    5 1   
     4    1    6 1   
     5    2    3 2   
     6    2    7 1   
     7    7    8 1   
     8    7   15 1   
     9    8    9 1   
    10    8   11 1   
    11    8   16 1   
    12    9   10 2   
    13    9   19 1   
    14   11   12 1   
    15   11   17 1   
    16   11   18 1   
    17   12   13 1   
    18   12   14 1   
    19   19   20 1   
    20   19   27 1   
    21   20   21 1   
    22   20   23 1   
    23   20   28 1   
    24   21   22 2   
    25   21   38 1   
    26   23   24 1   
    27   23   25 1   
    28   23   29 1   
    29   24   26 1   
    30   24   30 1   
    31   24   31 1   
    32   25   32 1   
    33   25   33 1   
    34   25   34 1   
    35   26   35 1   
    36   26   36 1   
    37   26   37 1   
    38   38   39 1   
    39   38   46 1   
    40   39   40 1   
    41   39   42 1   
    42   39   47 1   
    43   40   41 2   
    44   40   50 1   
    45   42   43 1   
    46   42   48 1   
    47   42   49 1   
    48   43   44 1   
    49   43   45 1   
    50   50   51 1   
    51   50   54 1   
    52   51   52 1   
    53   51   55 1   
    54   51   56 1   
    55   52   53 2   
    56   52   57 1   
    57   57   58 1   
    58   57   65 1   
    59   58   59 1   
    60   58   61 1   
    61   58   66 1   
    62   59   60 2   
    63   59   69 1   
    64   61   62 1   
    65   61   67 1   
    66   61   68 1   
    67   62   63 1   
    68   62   64 1   
    69   69   70 1   
    70   69   73 1   
    71   70   71 1   
    72   70   74 1   
    73   70   75 1   
    74   71   72 2   
    75   71   76 1   
    76   76   77 1   
    77   76   85 1   
    78   77   78 1   
    79   77   80 1   
    80   77   86 1   
    81   78   79 2   
    82   78   93 1   
    83   80   81 1   
    84   80   87 1   
    85   80   88 1   
    86   81   82 1   
    87   81   89 1   
    88   81   90 1   
    89   82   83 1   
    90   82   84 2   
    91   83   91 1   
    92   83   92 1   
    93   93   94 1   
    94   93  100 1   
    95   94   95 1   
    96   94   97 1   
    97   94  101 1   
    98   95   96 2   
    99   95  109 1   
   100   97   98 1   
   101   97   99 1   
   102   97  102 1   
   103   98  103 1   
   104   98  104 1   
   105   98  105 1   
   106   99  106 1   
   107   99  107 1   
   108   99  108 1   
   109  109  110 1   
   110  109  117 1   
   111  110  111 1   
   112  110  113 1   
   113  110  118 1   
   114  111  112 2   
   115  111  123 1   
   116  113  114 1   
   117  113  119 1   
   118  113  120 1   
   119  114  115 1   
   120  114  116 2   
   121  115  121 1   
   122  115  122 1   
   123  123  124 1   
   124  123  135 1   
   125  124  125 1   
   126  124  127 1   
   127  124  136 1   
   128  125  126 2   
   129  125  144 1   
   130  127  128 1   
   131  127  137 1   
   132  127  138 1   
   133  128  129 ar  
   134  128  130 ar  
   135  129  131 ar  
   136  129  139 1   
   137  130  132 ar  
   138  130  140 1   
   139  131  133 ar  
   140  131  141 1   
   141  132  133 ar  
   142  132  142 1   
   143  133  134 1   
   144  134  143 1   
   145  144  145 1   
   146  144  153 1   
   147  145  146 1   
   148  145  148 1   
   149  145  154 1   
   150  146  147 2   
   151  146  159 1   
   152  148  149 1   
   153  148  155 1   
   154  148  156 1   
   155  149  150 1   
   156  149  157 1   
   157  149  158 1   
   158  150  151 1   
   159  150  152 1   
   160  159  160 1   
   161  159  168 1   
   162  160  161 1   
   163  160  163 1   
   164  160  169 1   
   165  161  162 2   
   166  161  174 1   
   167  163  164 1   
   168  163  170 1   
   169  163  171 1   
   170  164  165 1   
   171  164  172 1   
   172  164  173 1   
   173  165  166 1   
   174  165  167 1   
   175  174  175 1   
   176  174  179 1   
   177  175  176 1   
   178  175  177 1   
   179  175  178 1   
   180  181  182 1   
   181  181  183 1   
@<TRIPOS>SUBSTRUCTURE
     1 MOL         1 TEMP              0 ****  ****    0 ROOT
