@<TRIPOS>MOLECULE
MOL
  189   185     1     0     0
SMALL
resp


@<TRIPOS>ATOM
      1 C1          0.4610    1.7750    5.2450 c3        1 MOL     -0.320883
      2 C2         -0.1520    1.8450    3.8580 c         1 MOL      0.809016
      3 O1          0.4310    2.3000    2.9140 o         1 MOL     -0.747603
      4 H1          1.5480    1.7960    5.1630 hc        1 MOL      0.084485
      5 H2          0.1260    2.6290    5.8340 hc        1 MOL      0.084485
      6 H3          0.1520    0.8510    5.7350 hc        1 MOL      0.084485
      7 N1         -1.4270    1.4050    3.6510 n         1 MOL     -0.679116
      8 C3         -2.1880    1.4090    2.3650 c3        1 MOL      0.490471
      9 C4         -2.6360    2.8050    2.0710 c         1 MOL      0.212804
     10 O2         -3.7580    3.2040    2.4750 o         1 MOL     -0.457797
     11 C5         -3.2520    0.3100    2.4920 c3        1 MOL     -0.271252
     12 C6         -4.1670    0.1370    1.3620 c         1 MOL      0.685781
     13 O3         -5.2750   -0.3450    1.6420 o         1 MOL     -0.650091
     14 O4         -3.8790    0.5510    0.2210 o         1 MOL     -0.650091
     15 H4         -1.8660    0.9170    4.4220 hn        1 MOL      0.310866
     16 H5         -1.6180    1.1600    1.4730 h1        1 MOL     -0.104197
     17 H6         -3.7510    0.5730    3.4220 hc        1 MOL      0.065516
     18 H7         -2.6770   -0.6210    2.5370 hc        1 MOL      0.065516
     19 N2         -1.8070    3.5790    1.3470 n         1 MOL     -0.111652
     20 C7         -2.0990    4.9990    1.0200 c3        1 MOL     -0.119413
     21 C8         -3.2070    5.2320    0.0160 c         1 MOL      0.536651
     22 O5         -3.7510    6.3100   -0.0350 o         1 MOL     -0.570636
     23 C9         -0.8190    5.7160    0.4950 c3        1 MOL     -0.126071
     24 C10         0.4950    5.6260    1.3050 c3        1 MOL      0.252702
     25 C11         1.4350    6.7980    1.1700 c3        1 MOL     -0.019021
     26 C12         2.5770    6.9540    2.2280 c3        1 MOL     -0.137697
     27 N3          3.7090    6.0620    1.9870 n4        1 MOL     -0.281112
     28 H8         -0.9110    3.2550    1.0150 hn        1 MOL      0.245878
     29 H9         -2.4800    5.5750    1.8680 h1        1 MOL      0.098788
     30 H10        -1.1120    6.7600    0.3530 hc        1 MOL      0.033528
     31 H11        -0.5950    5.3660   -0.5100 hc        1 MOL      0.033528
     32 H12         1.0270    4.7550    0.9240 hc        1 MOL     -0.025909
     33 H13         0.2800    5.5160    2.3640 hc        1 MOL     -0.025909
     34 H14         0.9070    7.7440    1.0370 hc        1 MOL      0.016492
     35 H15         1.9260    6.6600    0.2050 hc        1 MOL      0.016492
     36 H16         2.1220    6.7410    3.2010 hx        1 MOL      0.133926
     37 H17         2.9450    7.9710    2.1540 hx        1 MOL      0.133926
     38 H18         3.5350    5.1000    2.2360 hn        1 MOL      0.314911
     39 H19         3.8300    5.8710    1.0030 hn        1 MOL      0.314911
     40 H20         4.5260    6.3900    2.4690 hn        1 MOL      0.314911
     41 N4         -3.6110    4.2000   -0.7420 n         1 MOL     -0.221720
     42 C13        -4.7080    4.2590   -1.7690 c3        1 MOL      0.104443
     43 C14        -6.0060    3.6080   -1.2120 c         1 MOL      0.326919
     44 O6         -7.0640    3.7750   -1.8000 o         1 MOL     -0.514261
     45 C15        -4.2990    3.9180   -3.1630 c3        1 MOL     -0.364414
     46 C16        -3.2520    2.8330   -3.2320 c         1 MOL      0.801019
     47 O7         -2.3680    2.8440   -4.1200 o         1 MOL     -0.690771
     48 O8         -3.1800    1.9540   -2.3290 o         1 MOL     -0.690771
     49 H21        -3.0660    3.3450   -0.8080 hn        1 MOL      0.150025
     50 H22        -4.8470    5.3410   -1.8310 h1        1 MOL      0.087812
     51 H23        -3.8090    4.8220   -3.5370 hc        1 MOL      0.101570
     52 H24        -5.0960    3.6630   -3.8600 hc        1 MOL      0.101570
     53 N5         -5.8470    2.8700   -0.0950 n         1 MOL     -0.038471
     54 C17        -6.8710    2.1430    0.6090 c3        1 MOL     -0.124669
     55 C18        -7.3550    1.0110   -0.2060 c         1 MOL      0.594824
     56 O9         -8.5460    0.7190   -0.0280 o         1 MOL     -0.578865
     57 H25        -4.9180    2.8600    0.3030 hn        1 MOL      0.012740
     58 H26        -7.7410    2.7590    0.8700 h1        1 MOL      0.084330
     59 H27        -6.3910    1.7890    1.5210 h1        1 MOL      0.084330
     60 N6         -6.4690    0.3300   -1.0280 n         1 MOL     -0.350789
     61 C19        -6.9200   -0.9240   -1.8350 c3        1 MOL     -0.020364
     62 C20        -7.0210   -2.2290   -0.9710 c         1 MOL      0.405481
     63 O10        -7.5330   -3.2280   -1.4440 o         1 MOL     -0.536428
     64 C21        -5.9830   -1.0730   -3.0280 c3        1 MOL     -0.307736
     65 C22        -4.5670   -1.2690   -2.5930 c         1 MOL      0.697725
     66 O11        -3.7710   -0.7590   -3.4280 o         1 MOL     -0.684385
     67 O12        -4.1560   -1.7710   -1.4960 o         1 MOL     -0.684385
     68 H28        -5.4910    0.5710   -0.9380 hn        1 MOL      0.248443
     69 H29        -7.9010   -0.7860   -2.2950 h1        1 MOL      0.116827
     70 H30        -6.0970   -0.1530   -3.6050 hc        1 MOL      0.117659
     71 H31        -6.1720   -1.9560   -3.6370 hc        1 MOL      0.117659
     72 N7         -6.8000   -2.1410    0.3110 n         1 MOL     -0.158304
     73 C23        -6.8540   -3.2290    1.2150 c3        1 MOL     -0.173382
     74 C24        -5.6460   -4.2130    1.0830 c         1 MOL      0.506593
     75 O13        -5.7700   -5.3440    1.4850 o         1 MOL     -0.567357
     76 H32        -6.4330   -1.2440    0.6180 hn        1 MOL      0.247687
     77 H33        -7.7700   -3.7990    1.0450 h1        1 MOL      0.095868
     78 H34        -6.9370   -2.9030    2.2500 h1        1 MOL      0.095868
     79 N8         -4.5500   -3.7470    0.5190 n         1 MOL     -0.143324
     80 C25        -3.3200   -4.5240    0.4350 c3        1 MOL     -0.203570
     81 C26        -2.0820   -3.6790    0.7330 c         1 MOL      0.677184
     82 O14        -2.0670   -2.4750    0.4390 o         1 MOL     -0.586717
     83 C27        -3.1860   -5.2240   -0.8990 c3        1 MOL      0.532380
     84 C28        -4.3350   -6.0710   -1.3930 c3        1 MOL     -0.358458
     85 O15        -2.8480   -4.2590   -1.8880 oh        1 MOL     -0.659388
     86 H35        -4.5160   -2.7860    0.2060 hn        1 MOL      0.131803
     87 H36        -3.3720   -5.3220    1.1650 h1        1 MOL      0.059121
     88 H37        -2.3830   -5.9600   -0.8020 h1        1 MOL     -0.039439
     89 H38        -3.3860   -3.4810   -1.7290 ho        1 MOL      0.399890
     90 H39        -3.9100   -6.6750   -2.1940 hc        1 MOL      0.085903
     91 H40        -4.7140   -6.7470   -0.6150 hc        1 MOL      0.085903
     92 H41        -5.0790   -5.3870   -1.8040 hc        1 MOL      0.085903
     93 N9         -0.9370   -4.2840    1.1920 n         1 MOL     -0.677741
     94 C29         0.2660   -3.4450    1.4210 c3        1 MOL      0.108527
     95 C30         1.4530   -3.9970    0.6320 c         1 MOL      0.477886
     96 O16         1.7300   -5.2010    0.7080 o         1 MOL     -0.566960
     97 C31         0.5030   -3.1460    2.9130 c3        1 MOL      0.123725
     98 C32        -0.5970   -2.4050    3.6270 c3        1 MOL      0.129086
     99 C33         1.8110   -2.4030    3.1620 c3        1 MOL     -0.178769
    100 C34        -0.7640   -2.7410    5.1520 c3        1 MOL     -0.276633
    101 H42        -0.8770   -5.2690    1.3910 hn        1 MOL      0.342115
    102 H43         0.1400   -2.5040    0.8810 h1        1 MOL      0.117003
    103 H44         0.6410   -4.1110    3.4060 hc        1 MOL      0.012627
    104 H45        -1.5570   -2.7870    3.2740 hc        1 MOL     -0.005229
    105 H46        -0.5650   -1.3390    3.4260 hc        1 MOL     -0.005229
    106 H47         1.9620   -1.9810    4.1570 hc        1 MOL      0.002983
    107 H48         2.6480   -3.0500    2.9070 hc        1 MOL      0.002983
    108 H49         1.9560   -1.5830    2.4520 hc        1 MOL      0.002983
    109 H50        -1.5120   -2.0620    5.5530 hc        1 MOL      0.061231
    110 H51        -0.9810   -3.7880    5.3320 hc        1 MOL      0.061231
    111 H52         0.2020   -2.6540    5.6480 hc        1 MOL      0.061231
    112 N10         2.1560   -3.1310   -0.0310 n         1 MOL     -0.151882
    113 C35         3.4010   -3.4550   -0.8280 c3        1 MOL      0.032370
    114 C36         4.7110   -3.1330   -0.0430 c         1 MOL      0.332860
    115 O17         4.6510   -2.4460    1.0260 o         1 MOL     -0.305715
    116 C37         3.4190   -2.7700   -2.1910 c3        1 MOL      0.098107
    117 C38         2.0960   -2.4120   -2.9170 c3        1 MOL     -0.281488
    118 O18         3.9830   -1.4520   -2.0740 oh        1 MOL     -0.421265
    119 H53         1.7210   -2.2240   -0.0990 hn        1 MOL      0.116639
    120 H54         3.4840   -4.5330   -0.9860 h1        1 MOL      0.081126
    121 H55         4.1430   -3.2580   -2.8550 h1        1 MOL      0.038902
    122 H56         4.1400   -1.0380   -2.9240 ho        1 MOL      0.352544
    123 H57         1.4160   -1.7940   -2.3410 hc        1 MOL      0.090623
    124 H58         2.3540   -1.8320   -3.8020 hc        1 MOL      0.090623
    125 H59         1.5670   -3.2820   -3.3160 hc        1 MOL      0.090623
    126 N11         5.8830   -3.6280   -0.5260 n         1 MOL     -0.310020
    127 C39         7.1890   -3.0520   -0.0840 c3        1 MOL     -0.162715
    128 C40         7.4100   -1.5580   -0.0440 c         1 MOL      0.351411
    129 O19         8.0380   -1.0760    0.9390 o         1 MOL     -0.494999
    130 C41         8.3110   -3.7600   -0.8360 c3        1 MOL      0.432799
    131 C42         8.5380   -5.2380   -0.5630 c3        1 MOL     -0.348945
    132 O20         8.1120   -3.6300   -2.2040 oh        1 MOL     -0.707410
    133 H60         5.8570   -4.2800   -1.2920 hn        1 MOL      0.277858
    134 H61         7.4540   -3.3330    0.9310 h1        1 MOL      0.120135
    135 H62         9.2430   -3.2400   -0.5840 h1        1 MOL      0.030749
    136 H63         8.1180   -4.4470   -2.7180 ho        1 MOL      0.432144
    137 H64         8.9690   -5.3480    0.4260 hc        1 MOL      0.094666
    138 H65         7.5870   -5.7250   -0.7810 hc        1 MOL      0.094666
    139 H66         9.2640   -5.5050   -1.3220 hc        1 MOL      0.094666
    140 N12         6.9230   -0.8570   -1.0310 n         1 MOL     -0.116203
    141 C43         7.0310    0.5990   -1.1430 c3        1 MOL     -0.001055
    142 C44         6.2160    1.1590   -0.0380 c         1 MOL      0.465938
    143 O21         6.7440    1.9410    0.7400 o         1 MOL     -0.497794
    144 C45         6.6230    1.0720   -2.5420 c3        1 MOL     -0.391659
    145 C46         6.9120    2.5690   -2.7840 c3        1 MOL      0.128309
    146 C47         8.4410    2.8710   -2.7490 c3        1 MOL     -0.007251
    147 C48         8.7780    4.2800   -3.2360 c3        1 MOL      0.007636
    148 N13        10.1440    4.2530   -3.8290 n4        1 MOL     -0.116756
    149 H67         6.4650   -1.3520   -1.7770 hn        1 MOL      0.169780
    150 H68         8.0520    0.8920   -0.8950 h1        1 MOL      0.077319
    151 H69         5.5480    0.9180   -2.6400 hc        1 MOL      0.128634
    152 H70         7.2600    0.5530   -3.2670 hc        1 MOL      0.128634
    153 H71         6.3670    3.2310   -2.1050 hc        1 MOL      0.000180
    154 H72         6.6060    2.8220   -3.7930 hc        1 MOL      0.000180
    155 H73         8.8630    2.0970   -3.3880 hc        1 MOL      0.033108
    156 H74         8.7410    2.8070   -1.7030 hc        1 MOL      0.033108
    157 H75         8.7340    5.0010   -2.4200 hx        1 MOL      0.074716
    158 H76         8.0480    4.5780   -4.0000 hx        1 MOL      0.074716
    159 H77        10.8220    3.9340   -3.1560 hn        1 MOL      0.208855
    160 H78        10.3130    3.6430   -4.6090 hn        1 MOL      0.208855
    161 H79        10.4940    5.1440   -4.1330 hn        1 MOL      0.208855
    162 N14         4.9870    0.5780    0.1800 n         1 MOL     -0.040462
    163 C49         4.1370    1.0110    1.2520 c3        1 MOL     -0.160371
    164 C50         4.6280    0.8320    2.7110 c         1 MOL      0.286882
    165 O22         4.7120    1.7300    3.5910 o         1 MOL     -0.540540
    166 C51         2.6930    0.5130    1.0400 c3        1 MOL      0.235566
    167 C52         1.8910    1.3130    0.0320 c3        1 MOL     -0.024028
    168 C53         0.4630    0.8510   -0.0550 c         1 MOL      0.775841
    169 O23         0.2150   -0.4000    0.0230 o         1 MOL     -0.794170
    170 O24        -0.4400    1.5390   -0.5290 o         1 MOL     -0.794170
    171 H80         4.6450   -0.2360   -0.3130 hn        1 MOL     -0.059556
    172 H81         4.1690    2.1000    1.1820 h1        1 MOL      0.006718
    173 H82         2.2000    0.4610    2.0110 hc        1 MOL      0.037390
    174 H83         2.7650   -0.5230    0.7060 hc        1 MOL      0.037390
    175 H84         2.4060    1.2470   -0.9310 hc        1 MOL     -0.029914
    176 H85         2.0610    2.3860    0.1950 hc        1 MOL     -0.029914
    177 N15         5.1370   -0.3600    2.9720 n         1 MOL      0.126360
    178 C54         5.6910   -0.7970    4.2270 c3        1 MOL     -0.224555
    179 H86         6.7780   -0.7320    4.1850 h1        1 MOL      0.087691
    180 H87         5.3200   -0.1610    5.0300 h1        1 MOL      0.087691
    181 H88         5.3970   -1.8300    4.4150 h1        1 MOL      0.087691
    182 H89         5.0450   -1.0180    2.2190 hn        1 MOL      0.049340
    183 Ca1        -2.0180   -0.2180   -1.4120 Ca        1 MOL      1.806762
    184 O25        -1.2020   -2.3120   -2.9230 oh        1 MOL     -0.827601
    185 H90        -1.0130   -2.0160   -3.8090 ho        1 MOL      0.386549
    186 H91        -1.4900   -3.2110   -3.0140 ho        1 MOL      0.386549
    187 O26        -0.8030    0.7240   -3.9560 oh        1 MOL     -0.827601
    188 H92        -1.3940    1.3060   -4.4280 ho        1 MOL      0.386549
    189 H93         0.0770    1.0640   -4.1360 ho        1 MOL      0.386549
@<TRIPOS>BOND
     1    1    2 1   
     2    1    4 1   
     3    1    5 1   
     4    1    6 1   
     5    2    3 2   
     6    2    7 1   
     7    7    8 1   
     8    7   15 1   
     9    8    9 1   
    10    8   11 1   
    11    8   16 1   
    12    9   10 2   
    13    9   19 1   
    14   11   12 1   
    15   11   17 1   
    16   11   18 1   
    17   12   13 1   
    18   12   14 1   
    19   19   20 1   
    20   19   28 1   
    21   20   21 1   
    22   20   23 1   
    23   20   29 1   
    24   21   22 2   
    25   21   41 1   
    26   23   24 1   
    27   23   30 1   
    28   23   31 1   
    29   24   25 1   
    30   24   32 1   
    31   24   33 1   
    32   25   26 1   
    33   25   34 1   
    34   25   35 1   
    35   26   27 1   
    36   26   36 1   
    37   26   37 1   
    38   27   38 1   
    39   27   39 1   
    40   27   40 1   
    41   41   42 1   
    42   41   49 1   
    43   42   43 1   
    44   42   45 1   
    45   42   50 1   
    46   43   44 2   
    47   43   53 1   
    48   45   46 1   
    49   45   51 1   
    50   45   52 1   
    51   46   47 1   
    52   46   48 1   
    53   53   54 1   
    54   53   57 1   
    55   54   55 1   
    56   54   58 1   
    57   54   59 1   
    58   55   56 2   
    59   55   60 1   
    60   60   61 1   
    61   60   68 1   
    62   61   62 1   
    63   61   64 1   
    64   61   69 1   
    65   62   63 2   
    66   62   72 1   
    67   64   65 1   
    68   64   70 1   
    69   64   71 1   
    70   65   66 1   
    71   65   67 1   
    72   72   73 1   
    73   72   76 1   
    74   73   74 1   
    75   73   77 1   
    76   73   78 1   
    77   74   75 2   
    78   74   79 1   
    79   79   80 1   
    80   79   86 1   
    81   80   81 1   
    82   80   83 1   
    83   80   87 1   
    84   81   82 2   
    85   81   93 1   
    86   83   84 1   
    87   83   85 1   
    88   83   88 1   
    89   84   90 1   
    90   84   91 1   
    91   84   92 1   
    92   85   89 1   
    93   93   94 1   
    94   93  101 1   
    95   94   95 1   
    96   94   97 1   
    97   94  102 1   
    98   95   96 2   
    99   95  112 1   
   100   97   98 1   
   101   97   99 1   
   102   97  103 1   
   103   98  100 1   
   104   98  104 1   
   105   98  105 1   
   106   99  106 1   
   107   99  107 1   
   108   99  108 1   
   109  100  109 1   
   110  100  110 1   
   111  100  111 1   
   112  112  113 1   
   113  112  119 1   
   114  113  114 1   
   115  113  116 1   
   116  113  120 1   
   117  114  115 2   
   118  114  126 1   
   119  116  117 1   
   120  116  118 1   
   121  116  121 1   
   122  117  123 1   
   123  117  124 1   
   124  117  125 1   
   125  118  122 1   
   126  126  127 1   
   127  126  133 1   
   128  127  128 1   
   129  127  130 1   
   130  127  134 1   
   131  128  129 2   
   132  128  140 1   
   133  130  131 1   
   134  130  132 1   
   135  130  135 1   
   136  131  137 1   
   137  131  138 1   
   138  131  139 1   
   139  132  136 1   
   140  140  141 1   
   141  140  149 1   
   142  141  142 1   
   143  141  144 1   
   144  141  150 1   
   145  142  143 2   
   146  142  162 1   
   147  144  145 1   
   148  144  151 1   
   149  144  152 1   
   150  145  146 1   
   151  145  153 1   
   152  145  154 1   
   153  146  147 1   
   154  146  155 1   
   155  146  156 1   
   156  147  148 1   
   157  147  157 1   
   158  147  158 1   
   159  148  159 1   
   160  148  160 1   
   161  148  161 1   
   162  162  163 1   
   163  162  171 1   
   164  163  164 1   
   165  163  166 1   
   166  163  172 1   
   167  164  165 2   
   168  164  177 1   
   169  166  167 1   
   170  166  173 1   
   171  166  174 1   
   172  167  168 1   
   173  167  175 1   
   174  167  176 1   
   175  168  169 1   
   176  168  170 1   
   177  177  178 1   
   178  177  182 1   
   179  178  179 1   
   180  178  180 1   
   181  178  181 1   
   182  184  185 1   
   183  184  186 1   
   184  187  188 1   
   185  187  189 1   
@<TRIPOS>SUBSTRUCTURE
     1 MOL         1 TEMP              0 ****  ****    0 ROOT
