@<TRIPOS>MOLECULE
MOL
  189   185     1     0     0
SMALL
resp


@<TRIPOS>ATOM
      1 C1          0.0900    2.7840   -5.0600 c3        1 MOL     -0.197395
      2 C2          0.7140    2.5290   -3.6640 c         1 MOL      0.542614
      3 O1          0.0830    2.7410   -2.6400 o         1 MOL     -0.564920
      4 H1         -0.9020    2.3320   -5.1030 hc        1 MOL      0.054472
      5 H2          0.0060    3.8580   -5.2310 hc        1 MOL      0.054472
      6 H3          0.7240    2.3420   -5.8290 hc        1 MOL      0.054472
      7 N1          1.9650    2.1170   -3.6000 n         1 MOL     -0.524299
      8 C3          2.6810    1.7260   -2.4260 c3        1 MOL      0.175311
      9 C4          3.3610    2.9730   -1.8740 c         1 MOL      0.545117
     10 O2          4.5590    3.0760   -1.9370 o         1 MOL     -0.509793
     11 C5          3.6190    0.4640   -2.6320 c3        1 MOL     -0.333516
     12 C6          4.2260   -0.0030   -1.2930 c         1 MOL      0.863716
     13 O3          3.6030    0.2510   -0.1850 o         1 MOL     -0.679735
     14 O4          5.3260   -0.5840   -1.3650 o         1 MOL     -0.679735
     15 H4          2.4310    1.8480   -4.4650 hn        1 MOL      0.312956
     16 H5          1.9810    1.4140   -1.6630 h1        1 MOL      0.042603
     17 H6          4.4430    0.7570   -3.3010 hc        1 MOL      0.063237
     18 H7          3.1180   -0.4210   -3.0270 hc        1 MOL      0.063237
     19 N2          2.5680    3.8500   -1.2010 n         1 MOL     -0.701894
     20 C7          3.1740    5.0640   -0.6200 c3        1 MOL      0.239068
     21 C8          4.0360    4.8700    0.6000 c         1 MOL      0.330918
     22 O5          4.7710    5.7880    0.9610 o         1 MOL     -0.515667
     23 C9          2.0840    6.0830   -0.3760 c3        1 MOL     -0.189091
     24 C10         1.1700    6.2950   -1.6160 c3        1 MOL      0.104608
     25 C11         0.3060    7.6370   -1.4650 c3        1 MOL      0.028583
     26 C12        -0.0510    8.1000   -2.8560 c3        1 MOL     -0.056298
     27 N3         -1.1490    7.2400   -3.4130 n4        1 MOL     -0.330283
     28 H8          1.5820    3.6440   -1.1430 hn        1 MOL      0.453887
     29 H9          3.9210    5.5060   -1.2910 h1        1 MOL      0.064899
     30 H10         2.5310    7.0690   -0.2530 hc        1 MOL      0.064377
     31 H11         1.4570    5.7690    0.4620 hc        1 MOL      0.064377
     32 H12         0.4720    5.4740   -1.7750 hc        1 MOL     -0.024172
     33 H13         1.8330    6.3920   -2.4710 hc        1 MOL     -0.024172
     34 H14         0.9000    8.4140   -0.9880 hc        1 MOL      0.035120
     35 H15        -0.5860    7.4160   -0.8780 hc        1 MOL      0.035120
     36 H16         0.8060    7.9450   -3.5160 hx        1 MOL      0.098357
     37 H17        -0.3490    9.1450   -2.7950 hx        1 MOL      0.098357
     38 H18        -2.0850    7.4380   -3.0890 hn        1 MOL      0.320892
     39 H19        -1.1740    7.3830   -4.4170 hn        1 MOL      0.320892
     40 H20        -0.9810    6.2530   -3.3300 hn        1 MOL      0.320892
     41 N4          3.9120    3.6580    1.2490 n         1 MOL     -0.051342
     42 C13         4.8480    3.3240    2.3930 c3        1 MOL     -0.181220
     43 C14         6.2020    2.6700    1.9080 c         1 MOL      0.522434
     44 O6          7.1740    2.8150    2.5520 o         1 MOL     -0.532099
     45 C15         4.3260    2.2430    3.3910 c3        1 MOL      0.150175
     46 C16         2.8500    2.4000    3.6540 c         1 MOL      0.535190
     47 O7          2.0750    1.7300    2.9260 o         1 MOL     -0.627947
     48 O8          2.3760    3.2990    4.3950 o         1 MOL     -0.627947
     49 H21         3.1680    3.0260    0.9890 hn        1 MOL      0.147562
     50 H22         5.0800    4.2000    2.9890 h1        1 MOL      0.106390
     51 H23         4.8750    2.4120    4.3260 hc        1 MOL     -0.024232
     52 H24         4.4840    1.2580    2.9590 hc        1 MOL     -0.024232
     53 N5          6.2240    1.9610    0.7940 n         1 MOL     -0.226993
     54 C17         7.4480    1.3170    0.2760 c3        1 MOL     -0.156506
     55 C18         7.7140   -0.0440    0.9070 c         1 MOL      0.441967
     56 O9          8.8200   -0.2680    1.3330 o         1 MOL     -0.579345
     57 H25         5.3030    1.7400    0.4460 hn        1 MOL      0.085658
     58 H26         8.3300    1.9330    0.4740 h1        1 MOL      0.103445
     59 H27         7.3540    1.1210   -0.7960 h1        1 MOL      0.103445
     60 N6          6.7130   -0.8120    1.1660 n         1 MOL     -0.072381
     61 C19         6.7370   -2.0850    1.9320 c3        1 MOL     -0.080170
     62 C20         6.6080   -3.2810    0.9390 c         1 MOL      0.380276
     63 O10         6.7590   -4.4520    1.3370 o         1 MOL     -0.531855
     64 C21         5.6760   -2.0770    3.1050 c3        1 MOL     -0.187040
     65 C22         4.2490   -1.8440    2.6120 c         1 MOL      0.620574
     66 O11         3.8810   -2.3750    1.5010 o         1 MOL     -0.689078
     67 O12         3.5260   -0.9870    3.2500 o         1 MOL     -0.689078
     68 H28         5.8440   -0.6350    0.6640 hn        1 MOL      0.263805
     69 H29         7.6920   -2.2150    2.4430 h1        1 MOL      0.117126
     70 H30         5.9320   -1.2650    3.7820 hc        1 MOL      0.074017
     71 H31         5.6080   -3.0170    3.6510 hc        1 MOL      0.074017
     72 N7          6.4500   -2.9910   -0.3320 n         1 MOL     -0.213473
     73 C23         6.3980   -3.9740   -1.4460 c3        1 MOL     -0.176246
     74 C24         5.0460   -4.6170   -1.5310 c         1 MOL      0.510428
     75 O13         4.8690   -5.6380   -2.2600 o         1 MOL     -0.576637
     76 H32         6.2990   -2.0140   -0.5820 hn        1 MOL      0.185637
     77 H33         7.1680   -4.7360   -1.3670 h1        1 MOL      0.115095
     78 H34         6.5090   -3.4230   -2.3770 h1        1 MOL      0.115095
     79 N8          4.0340   -4.0580   -0.8470 n         1 MOL     -0.103261
     80 C25         2.6200   -4.4800   -1.0360 c3        1 MOL     -0.384390
     81 C26         1.6540   -3.2860   -1.0950 c         1 MOL      0.794600
     82 O14         1.8630   -2.2410   -0.4980 o         1 MOL     -0.701793
     83 C27         2.2780   -5.4050    0.1180 c3        1 MOL      0.584272
     84 C28         2.7540   -6.8490   -0.1040 c3        1 MOL     -0.568524
     85 O15         2.6920   -4.8970    1.3980 oh        1 MOL     -0.697825
     86 H35         4.1760   -3.2740   -0.2210 hn        1 MOL      0.131039
     87 H36         2.5430   -5.0190   -1.9830 h1        1 MOL      0.130456
     88 H37         1.2000   -5.4730    0.2170 h1        1 MOL     -0.034959
     89 H38         3.3040   -4.1660    1.2800 ho        1 MOL      0.447275
     90 H39         3.8470   -6.8490   -0.0940 hc        1 MOL      0.147299
     91 H40         2.4500   -7.4800    0.7410 hc        1 MOL      0.147299
     92 H41         2.4400   -7.2720   -1.0570 hc        1 MOL      0.147299
     93 N9          0.4660   -3.6140   -1.6590 n         1 MOL     -0.555342
     94 C29        -0.6780   -2.7070   -1.9800 c3        1 MOL     -0.011795
     95 C30        -1.9410   -3.3240   -1.4100 c         1 MOL      0.436519
     96 O16        -2.2290   -4.5020   -1.6400 o         1 MOL     -0.550867
     97 C31        -0.8050   -2.4250   -3.4590 c3        1 MOL      0.181023
     98 C32         0.4470   -1.8420   -4.1230 c3        1 MOL      0.153108
     99 C33        -2.0100   -1.5240   -3.7590 c3        1 MOL     -0.410813
    100 C34         0.3460   -1.8470   -5.6900 c3        1 MOL     -0.390110
    101 H42         0.3330   -4.5740   -1.9500 hn        1 MOL      0.287019
    102 H43        -0.5510   -1.7060   -1.5630 h1        1 MOL      0.042520
    103 H44        -0.9980   -3.3860   -3.9560 hc        1 MOL      0.004696
    104 H45         1.2900   -2.4870   -3.8730 hc        1 MOL      0.011073
    105 H46         0.6610   -0.8360   -3.7640 hc        1 MOL      0.011073
    106 H47        -2.8700   -1.9360   -3.2340 hc        1 MOL      0.083474
    107 H48        -1.8310   -0.5180   -3.3810 hc        1 MOL      0.083474
    108 H49        -2.3730   -1.4850   -4.7810 hc        1 MOL      0.083474
    109 H50        -0.5580   -1.3550   -6.0670 hc        1 MOL      0.092243
    110 H51         1.1610   -1.2000   -6.0230 hc        1 MOL      0.092243
    111 H52         0.4500   -2.8790   -6.0230 hc        1 MOL      0.092243
    112 N10        -2.7330   -2.6410   -0.5890 n         1 MOL     -0.073762
    113 C35        -3.9380   -3.0720    0.1760 c3        1 MOL     -0.173587
    114 C36        -5.2440   -2.7690   -0.6350 c         1 MOL      0.462565
    115 O17        -5.1340   -1.9870   -1.6690 o         1 MOL     -0.437042
    116 C37        -3.9400   -2.5470    1.6530 c3        1 MOL      0.200243
    117 C38        -2.7480   -3.0430    2.4110 c3        1 MOL     -0.386652
    118 O18        -3.9560   -1.1730    1.6580 oh        1 MOL     -0.596432
    119 H53        -2.5070   -1.6640   -0.4620 hn        1 MOL      0.413871
    120 H54        -3.8710   -4.1590    0.2280 h1        1 MOL      0.099544
    121 H55        -4.8920   -2.8900    2.0520 h1        1 MOL      0.045881
    122 H56        -3.0740   -0.9430    1.9480 ho        1 MOL      0.451066
    123 H57        -1.8270   -2.7870    1.8850 hc        1 MOL      0.095958
    124 H58        -2.5260   -2.6480    3.4030 hc        1 MOL      0.095958
    125 H59        -2.8210   -4.1200    2.5480 hc        1 MOL      0.095958
    126 N11        -6.4050   -3.2120   -0.1410 n         1 MOL     -0.389235
    127 C39        -7.7200   -2.6520   -0.5210 c3        1 MOL     -0.066910
    128 C40        -7.7720   -1.1560   -0.3790 c         1 MOL      0.428135
    129 O19        -8.0360   -0.4940   -1.3780 o         1 MOL     -0.452651
    130 C41        -8.8130   -3.2370    0.3870 c3        1 MOL      0.336426
    131 C42        -9.1480   -4.6640    0.1520 c3        1 MOL     -0.475113
    132 O20        -8.5480   -3.0360    1.7650 oh        1 MOL     -0.612599
    133 H60        -6.3600   -3.6290    0.7780 hn        1 MOL      0.301409
    134 H61        -7.8870   -2.8000   -1.5790 h1        1 MOL      0.135056
    135 H62        -9.7020   -2.6700    0.1100 h1        1 MOL      0.023149
    136 H63        -9.4190   -3.0020    2.1670 ho        1 MOL      0.406099
    137 H64        -8.4620   -5.2050    0.8060 hc        1 MOL      0.134459
    138 H65       -10.1800   -4.7580    0.4660 hc        1 MOL      0.134459
    139 H66        -9.0740   -4.9790   -0.8890 hc        1 MOL      0.134459
    140 N12        -7.3960   -0.6270    0.8630 n         1 MOL     -0.477697
    141 C43        -7.3940    0.8430    1.1030 c3        1 MOL      0.013844
    142 C44        -6.3990    1.5840    0.2820 c         1 MOL      0.390744
    143 O21        -6.7580    2.6450   -0.1460 o         1 MOL     -0.525849
    144 C45        -6.9860    0.9070    2.6280 c3        1 MOL      0.036661
    145 C46        -7.3220    2.3210    3.2090 c3        1 MOL     -0.212348
    146 C47        -7.1880    2.2880    4.7030 c3        1 MOL      0.106223
    147 C48        -7.4920    3.7040    5.1420 c3        1 MOL      0.052174
    148 N13        -7.2380    3.7780    6.6120 n4        1 MOL     -0.267443
    149 H67        -7.1580   -1.3480    1.5290 hn        1 MOL      0.294108
    150 H68        -8.3560    1.3120    0.9610 h1        1 MOL      0.124471
    151 H69        -5.9280    0.7020    2.7940 hc        1 MOL      0.022881
    152 H70        -7.5580    0.1940    3.2230 hc        1 MOL      0.022881
    153 H71        -8.3500    2.6150    2.9870 hc        1 MOL      0.072920
    154 H72        -6.5590    3.0330    2.8980 hc        1 MOL      0.072920
    155 H73        -6.2150    1.9200    5.0370 hc        1 MOL      0.004246
    156 H74        -7.9360    1.6770    5.2150 hc        1 MOL      0.004246
    157 H75        -8.4900    4.1090    4.9440 hx        1 MOL      0.074383
    158 H76        -6.8740    4.4710    4.6780 hx        1 MOL      0.074383
    159 H77        -6.4630    3.2060    6.9160 hn        1 MOL      0.247933
    160 H78        -7.1300    4.7470    6.8710 hn        1 MOL      0.247933
    161 H79        -8.0440    3.3640    7.0630 hn        1 MOL      0.247933
    162 N14        -5.2030    1.0300   -0.0910 n         1 MOL      0.026539
    163 C49        -4.3250    1.7080   -0.9930 c3        1 MOL     -0.286793
    164 C50        -4.8370    1.8810   -2.5110 c         1 MOL      0.442045
    165 O22        -4.3260    2.7620   -3.2880 o         1 MOL     -0.571957
    166 C51        -2.9130    1.0690   -1.0570 c3        1 MOL      0.123082
    167 C52        -2.1410    1.3780    0.2390 c3        1 MOL     -0.452783
    168 C53        -0.8810    0.5310    0.3700 c         1 MOL      0.909599
    169 O23         0.1970    1.1750    0.3270 o         1 MOL     -0.829215
    170 O24        -0.9390   -0.6150    0.7980 o         1 MOL     -0.829215
    171 H80        -4.9540    0.0840    0.1510 hn        1 MOL      0.009234
    172 H81        -4.1230    2.6940   -0.5810 h1        1 MOL      0.141210
    173 H82        -2.3260    1.3880   -1.9080 hc        1 MOL      0.051278
    174 H83        -3.0310   -0.0080   -1.1670 hc        1 MOL      0.051278
    175 H84        -2.7200    1.1450    1.1260 hc        1 MOL      0.099153
    176 H85        -2.0000    2.4560    0.1900 hc        1 MOL      0.099153
    177 N15        -5.8400    1.0440   -2.9390 n         1 MOL     -0.099095
    178 C54        -6.5080    1.0380   -4.2840 c3        1 MOL     -0.343213
    179 H86        -7.5890    1.0990   -4.1520 h1        1 MOL      0.134877
    180 H87        -6.1650    1.8940   -4.8650 h1        1 MOL      0.134877
    181 H88        -6.2590    0.1170   -4.8100 h1        1 MOL      0.134877
    182 H89        -6.0780    0.3330   -2.2600 hn        1 MOL      0.171631
    183 Ca1         1.6070   -0.5470    1.5990 Ca        1 MOL      1.752684
    184 O25         0.3030   -0.9230    4.0120 oh        1 MOL     -0.811861
    185 H90        -0.5900   -0.5660    4.0890 ho        1 MOL      0.399018
    186 H91         0.4620   -1.3430    4.8590 ho        1 MOL      0.399018
    187 O26         0.7090   -3.1710    2.2990 oh        1 MOL     -0.811861
    188 H92         0.3970   -3.1730    3.2010 ho        1 MOL      0.399018
    189 H93         1.3990   -3.8300    2.2790 ho        1 MOL      0.399018
@<TRIPOS>BOND
     1    1    2 1   
     2    1    4 1   
     3    1    5 1   
     4    1    6 1   
     5    2    3 2   
     6    2    7 1   
     7    7    8 1   
     8    7   15 1   
     9    8    9 1   
    10    8   11 1   
    11    8   16 1   
    12    9   10 2   
    13    9   19 1   
    14   11   12 1   
    15   11   17 1   
    16   11   18 1   
    17   12   13 1   
    18   12   14 1   
    19   19   20 1   
    20   19   28 1   
    21   20   21 1   
    22   20   23 1   
    23   20   29 1   
    24   21   22 2   
    25   21   41 1   
    26   23   24 1   
    27   23   30 1   
    28   23   31 1   
    29   24   25 1   
    30   24   32 1   
    31   24   33 1   
    32   25   26 1   
    33   25   34 1   
    34   25   35 1   
    35   26   27 1   
    36   26   36 1   
    37   26   37 1   
    38   27   38 1   
    39   27   39 1   
    40   27   40 1   
    41   41   42 1   
    42   41   49 1   
    43   42   43 1   
    44   42   45 1   
    45   42   50 1   
    46   43   44 2   
    47   43   53 1   
    48   45   46 1   
    49   45   51 1   
    50   45   52 1   
    51   46   47 1   
    52   46   48 1   
    53   53   54 1   
    54   53   57 1   
    55   54   55 1   
    56   54   58 1   
    57   54   59 1   
    58   55   56 2   
    59   55   60 1   
    60   60   61 1   
    61   60   68 1   
    62   61   62 1   
    63   61   64 1   
    64   61   69 1   
    65   62   63 2   
    66   62   72 1   
    67   64   65 1   
    68   64   70 1   
    69   64   71 1   
    70   65   66 1   
    71   65   67 1   
    72   72   73 1   
    73   72   76 1   
    74   73   74 1   
    75   73   77 1   
    76   73   78 1   
    77   74   75 2   
    78   74   79 1   
    79   79   80 1   
    80   79   86 1   
    81   80   81 1   
    82   80   83 1   
    83   80   87 1   
    84   81   82 2   
    85   81   93 1   
    86   83   84 1   
    87   83   85 1   
    88   83   88 1   
    89   84   90 1   
    90   84   91 1   
    91   84   92 1   
    92   85   89 1   
    93   93   94 1   
    94   93  101 1   
    95   94   95 1   
    96   94   97 1   
    97   94  102 1   
    98   95   96 2   
    99   95  112 1   
   100   97   98 1   
   101   97   99 1   
   102   97  103 1   
   103   98  100 1   
   104   98  104 1   
   105   98  105 1   
   106   99  106 1   
   107   99  107 1   
   108   99  108 1   
   109  100  109 1   
   110  100  110 1   
   111  100  111 1   
   112  112  113 1   
   113  112  119 1   
   114  113  114 1   
   115  113  116 1   
   116  113  120 1   
   117  114  115 2   
   118  114  126 1   
   119  116  117 1   
   120  116  118 1   
   121  116  121 1   
   122  117  123 1   
   123  117  124 1   
   124  117  125 1   
   125  118  122 1   
   126  126  127 1   
   127  126  133 1   
   128  127  128 1   
   129  127  130 1   
   130  127  134 1   
   131  128  129 2   
   132  128  140 1   
   133  130  131 1   
   134  130  132 1   
   135  130  135 1   
   136  131  137 1   
   137  131  138 1   
   138  131  139 1   
   139  132  136 1   
   140  140  141 1   
   141  140  149 1   
   142  141  142 1   
   143  141  144 1   
   144  141  150 1   
   145  142  143 2   
   146  142  162 1   
   147  144  145 1   
   148  144  151 1   
   149  144  152 1   
   150  145  146 1   
   151  145  153 1   
   152  145  154 1   
   153  146  147 1   
   154  146  155 1   
   155  146  156 1   
   156  147  148 1   
   157  147  157 1   
   158  147  158 1   
   159  148  159 1   
   160  148  160 1   
   161  148  161 1   
   162  162  163 1   
   163  162  171 1   
   164  163  164 1   
   165  163  166 1   
   166  163  172 1   
   167  164  165 2   
   168  164  177 1   
   169  166  167 1   
   170  166  173 1   
   171  166  174 1   
   172  167  168 1   
   173  167  175 1   
   174  167  176 1   
   175  168  169 1   
   176  168  170 1   
   177  177  178 1   
   178  177  182 1   
   179  178  179 1   
   180  178  180 1   
   181  178  181 1   
   182  184  185 1   
   183  184  186 1   
   184  187  188 1   
   185  187  189 1   
@<TRIPOS>SUBSTRUCTURE
     1 MOL         1 TEMP              0 ****  ****    0 ROOT
