@<TRIPOS>MOLECULE
MOL
  186   183     1     0     0
SMALL
resp


@<TRIPOS>ATOM
      1 C1         -0.6660    3.1610    5.6130 c3        1 MOL     -0.470111
      2 C2         -0.9350    2.7960    4.1390 c         1 MOL      0.646359
      3 O1          0.0280    2.5100    3.4110 o         1 MOL     -0.576818
      4 H1          0.1850    3.8390    5.6690 hc        1 MOL      0.122874
      5 H2         -1.5460    3.6480    6.0330 hc        1 MOL      0.122874
      6 H3         -0.4470    2.2550    6.1780 hc        1 MOL      0.122874
      7 N1         -2.2170    2.7170    3.7640 n         1 MOL     -0.550170
      8 C3         -2.6150    2.2170    2.3990 c3        1 MOL      0.135003
      9 C4         -2.8160    3.3810    1.4370 c         1 MOL      0.302309
     10 O2         -3.8310    4.0790    1.4640 o         1 MOL     -0.517619
     11 C5         -3.8890    1.3350    2.5350 c3        1 MOL     -0.095603
     12 C6         -4.3630    0.7110    1.1850 c         1 MOL      0.822075
     13 O3         -3.6230    0.8180    0.2000 o         1 MOL     -0.740006
     14 O4         -5.3840   -0.0140    1.1790 o         1 MOL     -0.740006
     15 H4         -2.9190    3.0210    4.4240 hn        1 MOL      0.331587
     16 H5         -1.8400    1.5460    2.0130 h1        1 MOL     -0.004729
     17 H6         -4.7000    1.9250    2.9680 hc        1 MOL      0.004931
     18 H7         -3.6390    0.5270    3.2270 hc        1 MOL      0.004931
     19 N2         -1.7890    3.6130    0.6240 n         1 MOL     -0.036439
     20 C7         -1.6610    4.8420   -0.1270 c3        1 MOL     -0.023543
     21 C8         -2.6080    4.9200   -1.3970 c         1 MOL      0.563220
     22 O5         -2.4790    5.8790   -2.1850 o         1 MOL     -0.588031
     23 C9         -0.1940    5.0820   -0.4400 c3        1 MOL     -0.002104
     24 C10         0.6500    5.3490    0.7930 c3        1 MOL     -0.008198
     25 C11        -0.0220    6.3000    1.7890 c3        1 MOL     -0.074602
     26 C12         0.9940    6.8620    2.8180 c3        1 MOL     -0.025049
     27 N3          0.3320    7.5690    3.9040 n4        1 MOL     -0.242818
     28 H8         -1.1370    2.8440    0.5650 hn        1 MOL      0.188086
     29 H9         -2.0580    5.6450    0.4940 h1        1 MOL      0.013733
     30 H10         0.0870    5.8790   -1.1320 hc        1 MOL      0.033860
     31 H11         0.1120    4.1600   -0.9470 hc        1 MOL      0.033860
     32 H12         1.5920    5.7610    0.4210 hc        1 MOL      0.015517
     33 H13         0.9310    4.4260    1.2990 hc        1 MOL      0.015517
     34 H14        -0.8290    5.7890    2.3150 hc        1 MOL      0.042973
     35 H15        -0.4630    7.0900    1.1740 hc        1 MOL      0.042973
     36 H16         1.7580    7.5070    2.3970 hx        1 MOL      0.096879
     37 H17         1.4950    5.9840    3.2250 hx        1 MOL      0.096879
     38 H18         0.9250    8.2740    4.3040 hn        1 MOL      0.295818
     39 H19        -0.4570    8.0290    3.4780 hn        1 MOL      0.295818
     40 H20        -0.0900    6.9740    4.6060 hn        1 MOL      0.295818
     41 N4         -3.4180    3.9200   -1.5570 n         1 MOL     -0.402596
     42 C13        -4.1130    3.6620   -2.8530 c3        1 MOL      0.133820
     43 C14        -5.3270    2.7540   -2.6730 c         1 MOL      0.370239
     44 O6         -5.9040    2.3190   -3.6130 o         1 MOL     -0.480766
     45 C15        -3.2040    3.1900   -3.9690 c3        1 MOL     -0.244542
     46 C16        -2.4660    1.8800   -3.7460 c         1 MOL      0.861963
     47 O7         -2.6440    1.2400   -2.6960 o         1 MOL     -0.740067
     48 O8         -1.5860    1.5520   -4.5720 o         1 MOL     -0.740067
     49 H21        -3.3910    3.1190   -0.9530 hn        1 MOL      0.105237
     50 H22        -4.4890    4.6400   -3.1600 h1        1 MOL      0.079609
     51 H23        -2.4830    3.9940   -4.1610 hc        1 MOL      0.065095
     52 H24        -3.8100    3.1650   -4.8770 hc        1 MOL      0.065095
     53 N5         -5.7120    2.4910   -1.3820 n         1 MOL     -0.267419
     54 C17        -6.9990    1.9750   -0.9130 c3        1 MOL     -0.035107
     55 C18        -7.4170    0.5840   -1.3150 c         1 MOL      0.472826
     56 O9         -8.5510    0.2270   -1.3040 o         1 MOL     -0.584746
     57 H25        -5.1480    2.9970   -0.7190 hn        1 MOL      0.203014
     58 H26        -7.8160    2.6490   -1.1210 h1        1 MOL      0.064963
     59 H27        -6.9570    1.9930    0.1810 h1        1 MOL      0.064963
     60 N6         -6.4590   -0.2090   -1.7270 n         1 MOL     -0.125516
     61 C19        -6.7290   -1.5230   -2.2440 c3        1 MOL     -0.229125
     62 C20        -6.7870   -2.5570   -1.1620 c         1 MOL      0.548255
     63 O10        -7.0070   -3.7070   -1.5380 o         1 MOL     -0.585512
     64 C21        -5.5750   -1.7850   -3.2820 c3        1 MOL      0.055939
     65 C22        -4.2010   -1.9550   -2.6560 c         1 MOL      0.641428
     66 O11        -4.0980   -2.1480   -1.4200 o         1 MOL     -0.656196
     67 O12        -3.2040   -1.7600   -3.3650 o         1 MOL     -0.656196
     68 H28        -5.5250    0.0510   -1.4400 hn        1 MOL      0.182662
     69 H29        -7.7140   -1.6080   -2.7060 h1        1 MOL      0.152601
     70 H30        -5.5700   -0.9310   -3.9470 hc        1 MOL      0.009799
     71 H31        -5.8290   -2.6090   -3.9530 hc        1 MOL      0.009799
     72 N7         -6.5550   -2.2680    0.1340 n         1 MOL     -0.312712
     73 C23        -6.6510   -3.2600    1.1560 c3        1 MOL     -0.177128
     74 C24        -5.3940   -3.9940    1.4880 c         1 MOL      0.504584
     75 O13        -5.3780   -4.7800    2.3780 o         1 MOL     -0.589330
     76 H32        -6.3950   -1.3070    0.3960 hn        1 MOL      0.304419
     77 H33        -7.4730   -3.9700    1.0230 h1        1 MOL      0.107715
     78 H34        -6.9360   -2.7840    2.1020 h1        1 MOL      0.107715
     79 N8         -4.2890   -3.8540    0.7830 n         1 MOL      0.056168
     80 C25        -3.0270   -4.5250    1.0130 c3        1 MOL     -0.474375
     81 C26        -1.7890   -3.5800    1.0740 c         1 MOL      0.830837
     82 O14        -1.7880   -2.5180    0.4570 o         1 MOL     -0.781073
     83 C27        -2.8640   -5.6590   -0.0270 c3        1 MOL      0.403904
     84 C28        -4.0680   -6.6740    0.1090 c3        1 MOL     -0.420052
     85 O15        -2.9550   -5.1120   -1.3250 oh        1 MOL     -0.617030
     86 H35        -4.1480   -3.1390    0.0850 hn        1 MOL      0.077989
     87 H36        -3.0680   -4.9830    1.9920 h1        1 MOL      0.125943
     88 H37        -1.8650   -6.0690    0.0750 h1        1 MOL      0.010429
     89 H38        -3.7070   -4.5240   -1.3230 ho        1 MOL      0.399537
     90 H39        -4.0630   -7.3330   -0.7630 hc        1 MOL      0.110985
     91 H40        -3.9460   -7.3190    0.9800 hc        1 MOL      0.110985
     92 H41        -4.9940   -6.1040    0.1290 hc        1 MOL      0.110985
     93 N9         -0.7590   -4.0180    1.7960 n         1 MOL     -0.453970
     94 C29         0.4220   -3.1940    2.0270 c3        1 MOL      0.059939
     95 C30         1.6270   -3.6750    1.2800 c         1 MOL      0.478699
     96 O16         2.1150   -4.7200    1.4380 o         1 MOL     -0.544448
     97 C31         0.6990   -3.0760    3.5390 c3        1 MOL      0.068366
     98 C32        -0.3640   -2.3760    4.5160 c3        1 MOL     -0.230314
     99 C33         1.9250   -2.2720    3.8240 c3        1 MOL     -0.438993
    100 C34        -1.0130   -1.1200    3.9100 c3        1 MOL     -0.160461
    101 H42        -0.8230   -4.9810    2.1040 hn        1 MOL      0.275597
    102 H43         0.1430   -2.1920    1.7250 h1        1 MOL      0.055397
    103 H44         1.0090   -4.0590    3.8880 hc        1 MOL      0.033825
    104 H45         0.0160   -2.1200    5.5000 hc        1 MOL      0.074439
    105 H46        -1.2170   -3.0390    4.6300 hc        1 MOL      0.074439
    106 H47         2.0220   -2.2740    4.9120 hc        1 MOL      0.132230
    107 H48         2.7780   -2.6890    3.2880 hc        1 MOL      0.132230
    108 H49         1.8740   -1.2400    3.4710 hc        1 MOL      0.132230
    109 H50        -0.2590   -0.5260    3.3890 hc        1 MOL      0.092339
    110 H51        -1.7400   -1.3510    3.1220 hc        1 MOL      0.092339
    111 H52        -1.4120   -0.3990    4.6220 hc        1 MOL      0.092339
    112 N10         2.1910   -2.8820    0.3880 n         1 MOL     -0.097406
    113 C35         3.3820   -3.1040   -0.5080 c3        1 MOL     -0.053860
    114 C36         4.6670   -2.8130    0.2310 c         1 MOL      0.398893
    115 O17         4.7520   -2.3120    1.3560 o         1 MOL     -0.327560
    116 C37         3.3060   -2.2520   -1.7730 c3        1 MOL      0.266738
    117 C38         2.1660   -2.6820   -2.6160 c3        1 MOL     -0.099367
    118 O18         3.0700   -0.9090   -1.3830 oh        1 MOL     -0.569360
    119 H53         1.8380   -1.9390    0.3940 hn        1 MOL      0.054131
    120 H54         3.4350   -4.1370   -0.8360 h1        1 MOL      0.082092
    121 H55         4.2070   -2.3600   -2.3720 h1        1 MOL      0.047598
    122 H56         2.1840   -0.7980   -1.0450 ho        1 MOL      0.345178
    123 H57         1.2370   -2.6360   -2.0480 hc        1 MOL      0.020889
    124 H58         2.0970   -2.0010   -3.4660 hc        1 MOL      0.020889
    125 H59         2.4020   -3.6940   -2.9700 hc        1 MOL      0.020889
    126 N11         5.8000   -2.9800   -0.5120 n         1 MOL     -0.391812
    127 C39         7.1620   -2.5810   -0.0740 c3        1 MOL      0.102682
    128 C40         7.2680   -1.0900    0.2030 c         1 MOL      0.223177
    129 O19         7.9170   -0.6520    1.2030 o         1 MOL     -0.469700
    130 C41         8.2920   -2.8850   -1.0390 c3        1 MOL      0.166635
    131 C42         8.4030   -4.4390   -1.2690 c3        1 MOL     -0.492945
    132 O20         7.9280   -2.4300   -2.3310 oh        1 MOL     -0.633669
    133 H60         5.7910   -3.4340   -1.4180 hn        1 MOL      0.265040
    134 H61         7.4620   -2.9860    0.8920 h1        1 MOL      0.105426
    135 H62         9.2260   -2.4350   -0.7150 h1        1 MOL      0.092055
    136 H63         8.7380   -2.4920   -2.8330 ho        1 MOL      0.418175
    137 H64         7.6300   -4.8460   -1.9230 hc        1 MOL      0.145586
    138 H65         9.2890   -4.4950   -1.8940 hc        1 MOL      0.145586
    139 H66         8.4300   -5.0330   -0.3510 hc        1 MOL      0.145586
    140 N12         6.6500   -0.3070   -0.7480 n         1 MOL     -0.188809
    141 C43         6.6420    1.2020   -0.7760 c3        1 MOL     -0.023897
    142 C44         5.5380    1.7410    0.1330 c         1 MOL      0.517609
    143 O21         5.4220    3.0010    0.1800 o         1 MOL     -0.570013
    144 C45         6.5890    1.7150   -2.2470 c3        1 MOL     -0.118405
    145 C46         7.6720    1.1020   -3.1580 c3        1 MOL     -0.108526
    146 C47         7.8560    1.9570   -4.4630 c3        1 MOL      0.045675
    147 C48         9.0810    1.4910   -5.1440 c3        1 MOL     -0.038724
    148 N13        10.2540    2.3410   -4.8800 n4        1 MOL     -0.326017
    149 H67         6.3650   -0.8680   -1.5390 hn        1 MOL      0.271747
    150 H68         7.5400    1.6190   -0.3090 h1        1 MOL      0.097063
    151 H69         6.5930    2.8040   -2.3210 hc        1 MOL      0.076696
    152 H70         5.6110    1.4400   -2.6430 hc        1 MOL      0.076696
    153 H71         7.3070    0.1150   -3.4580 hc        1 MOL      0.050712
    154 H72         8.6460    1.0200   -2.6790 hc        1 MOL      0.050712
    155 H73         8.0740    2.9850   -4.1750 hc        1 MOL      0.044738
    156 H74         6.9490    1.8800   -5.0570 hc        1 MOL      0.044738
    157 H75         8.8190    1.5570   -6.2030 hx        1 MOL      0.100187
    158 H76         9.3270    0.4680   -4.8790 hx        1 MOL      0.100187
    159 H77        10.0110    3.3110   -5.0400 hn        1 MOL      0.291440
    160 H78        10.5460    2.3620   -3.9080 hn        1 MOL      0.291440
    161 H79        11.0830    2.0690   -5.3890 hn        1 MOL      0.291440
    162 N14         4.8560    0.8590    0.9380 n         1 MOL     -0.014012
    163 C49         3.9790    1.2910    2.0120 c3        1 MOL     -0.262909
    164 C50         4.3510    0.6720    3.4140 c         1 MOL      0.456332
    165 O22         3.7700    1.0970    4.4100 o         1 MOL     -0.524631
    166 C51         2.5700    0.9020    1.6810 c3        1 MOL      0.316422
    167 C52         2.0420    1.4220    0.4000 c3        1 MOL     -0.038628
    168 C53         0.6700    0.8020    0.1740 c         1 MOL      0.599687
    169 O23         0.6170   -0.4080   -0.1700 o         1 MOL     -0.644129
    170 O24        -0.3980    1.3340    0.1610 o         1 MOL     -0.644129
    171 H80         5.0170   -0.1400    0.9020 hn        1 MOL     -0.271362
    172 H81         4.0750    2.3740    2.0190 h1        1 MOL      0.117960
    173 H82         1.9630    1.2180    2.5270 hc        1 MOL      0.008257
    174 H83         2.4650   -0.1700    1.5730 hc        1 MOL      0.008257
    175 H84         2.7270    1.1750   -0.4170 hc        1 MOL     -0.008987
    176 H85         2.0100    2.5010    0.5330 hc        1 MOL     -0.008987
    177 N15         5.2260   -0.3280    3.5220 n         1 MOL     -0.223126
    178 C54         5.5210   -0.9940    4.7870 c3        1 MOL     -0.163683
    179 H86         6.4040   -0.5420    5.2370 h1        1 MOL      0.081670
    180 H87         4.6720   -0.8830    5.4620 h1        1 MOL      0.081670
    181 H88         5.7060   -2.0520    4.6060 h1        1 MOL      0.081670
    182 H89         5.7620   -0.6080    2.7040 hn        1 MOL      0.287718
    183 Ca1        -1.8870   -0.5490   -1.1570 Ca        1 MOL      1.807281
    184 O25        -0.5610   -0.4630   -3.3570 oh        1 MOL     -1.003726
    185 H90        -0.9060    0.2680   -3.8670 ho        1 MOL      0.453021
    186 H91         0.1000   -0.8540   -3.9320 ho        1 MOL      0.453021
@<TRIPOS>BOND
     1    1    2 1   
     2    1    4 1   
     3    1    5 1   
     4    1    6 1   
     5    2    3 2   
     6    2    7 1   
     7    7    8 1   
     8    7   15 1   
     9    8    9 1   
    10    8   11 1   
    11    8   16 1   
    12    9   10 2   
    13    9   19 1   
    14   11   12 1   
    15   11   17 1   
    16   11   18 1   
    17   12   13 1   
    18   12   14 1   
    19   19   20 1   
    20   19   28 1   
    21   20   21 1   
    22   20   23 1   
    23   20   29 1   
    24   21   22 2   
    25   21   41 1   
    26   23   24 1   
    27   23   30 1   
    28   23   31 1   
    29   24   25 1   
    30   24   32 1   
    31   24   33 1   
    32   25   26 1   
    33   25   34 1   
    34   25   35 1   
    35   26   27 1   
    36   26   36 1   
    37   26   37 1   
    38   27   38 1   
    39   27   39 1   
    40   27   40 1   
    41   41   42 1   
    42   41   49 1   
    43   42   43 1   
    44   42   45 1   
    45   42   50 1   
    46   43   44 2   
    47   43   53 1   
    48   45   46 1   
    49   45   51 1   
    50   45   52 1   
    51   46   47 1   
    52   46   48 1   
    53   53   54 1   
    54   53   57 1   
    55   54   55 1   
    56   54   58 1   
    57   54   59 1   
    58   55   56 2   
    59   55   60 1   
    60   60   61 1   
    61   60   68 1   
    62   61   62 1   
    63   61   64 1   
    64   61   69 1   
    65   62   63 2   
    66   62   72 1   
    67   64   65 1   
    68   64   70 1   
    69   64   71 1   
    70   65   66 1   
    71   65   67 1   
    72   72   73 1   
    73   72   76 1   
    74   73   74 1   
    75   73   77 1   
    76   73   78 1   
    77   74   75 2   
    78   74   79 1   
    79   79   80 1   
    80   79   86 1   
    81   80   81 1   
    82   80   83 1   
    83   80   87 1   
    84   81   82 2   
    85   81   93 1   
    86   83   84 1   
    87   83   85 1   
    88   83   88 1   
    89   84   90 1   
    90   84   91 1   
    91   84   92 1   
    92   85   89 1   
    93   93   94 1   
    94   93  101 1   
    95   94   95 1   
    96   94   97 1   
    97   94  102 1   
    98   95   96 2   
    99   95  112 1   
   100   97   98 1   
   101   97   99 1   
   102   97  103 1   
   103   98  100 1   
   104   98  104 1   
   105   98  105 1   
   106   99  106 1   
   107   99  107 1   
   108   99  108 1   
   109  100  109 1   
   110  100  110 1   
   111  100  111 1   
   112  112  113 1   
   113  112  119 1   
   114  113  114 1   
   115  113  116 1   
   116  113  120 1   
   117  114  115 2   
   118  114  126 1   
   119  116  117 1   
   120  116  118 1   
   121  116  121 1   
   122  117  123 1   
   123  117  124 1   
   124  117  125 1   
   125  118  122 1   
   126  126  127 1   
   127  126  133 1   
   128  127  128 1   
   129  127  130 1   
   130  127  134 1   
   131  128  129 2   
   132  128  140 1   
   133  130  131 1   
   134  130  132 1   
   135  130  135 1   
   136  131  137 1   
   137  131  138 1   
   138  131  139 1   
   139  132  136 1   
   140  140  141 1   
   141  140  149 1   
   142  141  142 1   
   143  141  144 1   
   144  141  150 1   
   145  142  143 2   
   146  142  162 1   
   147  144  145 1   
   148  144  151 1   
   149  144  152 1   
   150  145  146 1   
   151  145  153 1   
   152  145  154 1   
   153  146  147 1   
   154  146  155 1   
   155  146  156 1   
   156  147  148 1   
   157  147  157 1   
   158  147  158 1   
   159  148  159 1   
   160  148  160 1   
   161  148  161 1   
   162  162  163 1   
   163  162  171 1   
   164  163  164 1   
   165  163  166 1   
   166  163  172 1   
   167  164  165 2   
   168  164  177 1   
   169  166  167 1   
   170  166  173 1   
   171  166  174 1   
   172  167  168 1   
   173  167  175 1   
   174  167  176 1   
   175  168  169 1   
   176  168  170 1   
   177  177  178 1   
   178  177  182 1   
   179  178  179 1   
   180  178  180 1   
   181  178  181 1   
   182  184  185 1   
   183  184  186 1   
@<TRIPOS>SUBSTRUCTURE
     1 MOL         1 TEMP              0 ****  ****    0 ROOT
