@<TRIPOS>MOLECULE
MOL
  189   185     1     0     0
SMALL
resp


@<TRIPOS>ATOM
      1 C1          0.3540    2.4120    5.1960 c3        1 MOL     -0.339702
      2 C2         -0.3710    2.2260    3.8220 c         1 MOL      0.679902
      3 O1          0.3400    2.4230    2.8020 o         1 MOL     -0.538487
      4 H1         -0.0880    1.7410    5.9320 hc        1 MOL      0.088934
      5 H2          1.4130    2.1810    5.0830 hc        1 MOL      0.088934
      6 H3          0.2400    3.4430    5.5310 hc        1 MOL      0.088934
      7 N1         -1.6390    1.8560    3.7560 n         1 MOL     -0.767340
      8 C3         -2.4140    1.6980    2.5300 c3        1 MOL      0.537426
      9 C4         -2.8460    2.9940    1.8020 c         1 MOL      0.056254
     10 O2         -3.9000    3.5620    2.1160 o         1 MOL     -0.510542
     11 C5         -3.5390    0.6550    2.7100 c3        1 MOL     -0.156637
     12 C6         -4.0950    0.0530    1.3800 c         1 MOL      0.709434
     13 O3         -5.1380   -0.6740    1.3700 o         1 MOL     -0.673452
     14 O4         -3.5660    0.3710    0.3300 o         1 MOL     -0.673452
     15 H4         -2.0830    1.8620    4.6660 hn        1 MOL      0.349186
     16 H5         -1.7550    1.3040    1.7560 h1        1 MOL     -0.055050
     17 H6         -4.2860    1.1400    3.3300 hc        1 MOL      0.021933
     18 H7         -3.2060   -0.1490    3.3770 hc        1 MOL      0.021933
     19 N2         -2.0430    3.5070    0.8630 n         1 MOL     -0.096344
     20 C7         -2.0900    4.8280    0.2130 c3        1 MOL     -0.326207
     21 C8         -2.8200    4.9120   -1.0940 c         1 MOL      0.866641
     22 O5         -2.6560    5.8980   -1.8200 o         1 MOL     -0.600745
     23 C9         -0.7340    5.5540    0.2280 c3        1 MOL      0.107536
     24 C10        -0.2960    6.0400    1.6040 c3        1 MOL      0.226203
     25 C11        -1.2860    7.0060    2.3160 c3        1 MOL     -0.233829
     26 C12        -2.0850    6.1970    3.3700 c3        1 MOL      0.097934
     27 N3         -3.2910    6.8640    3.9150 n4        1 MOL     -0.406756
     28 H8         -1.2430    2.9150    0.6580 hn        1 MOL      0.339884
     29 H9         -2.7620    5.4900    0.7530 h1        1 MOL      0.101182
     30 H10        -0.8240    6.4340   -0.4080 hc        1 MOL     -0.014596
     31 H11        -0.0210    4.8540   -0.2000 hc        1 MOL     -0.014596
     32 H12         0.5650    6.7040    1.4470 hc        1 MOL     -0.051805
     33 H13         0.0460    5.1620    2.1520 hc        1 MOL     -0.051805
     34 H14        -1.9080    7.4950    1.5690 hc        1 MOL      0.074156
     35 H15        -0.6410    7.7550    2.7880 hc        1 MOL      0.074156
     36 H16        -1.3790    6.0070    4.1670 hx        1 MOL      0.065101
     37 H17        -2.4200    5.2020    3.0560 hx        1 MOL      0.065101
     38 H18        -3.8120    6.2460    4.5190 hn        1 MOL      0.339382
     39 H19        -2.8840    7.5430    4.5460 hn        1 MOL      0.339382
     40 H20        -3.8040    7.3450    3.1930 hn        1 MOL      0.339382
     41 N4         -3.6900    3.9450   -1.3330 n         1 MOL     -0.693678
     42 C13        -4.7570    3.9230   -2.3250 c3        1 MOL     -0.011551
     43 C14        -6.0360    3.2130   -1.8860 c         1 MOL      0.550235
     44 O6         -7.0930    3.7350   -2.2230 o         1 MOL     -0.564240
     45 C15        -4.1980    3.3880   -3.6830 c3        1 MOL     -0.180622
     46 C16        -3.0700    2.3610   -3.5570 c         1 MOL      0.692827
     47 O7         -3.0550    1.5790   -2.5850 o         1 MOL     -0.682622
     48 O8         -2.0740    2.4430   -4.4210 o         1 MOL     -0.682622
     49 H21        -3.4780    3.0990   -0.8320 hn        1 MOL      0.413847
     50 H22        -4.9920    4.9430   -2.6400 h1        1 MOL      0.092067
     51 H23        -3.7840    4.1760   -4.3140 hc        1 MOL      0.069869
     52 H24        -5.0230    2.9350   -4.2370 hc        1 MOL      0.069869
     53 N5         -5.9520    2.1600   -1.0980 n         1 MOL     -0.246315
     54 C17        -7.1390    1.4520   -0.5950 c3        1 MOL     -0.099328
     55 C18        -7.4750    0.1840   -1.3150 c         1 MOL      0.545973
     56 O9         -8.5290    0.1020   -1.9350 o         1 MOL     -0.567340
     57 H25        -5.0600    1.7620   -0.8500 hn        1 MOL      0.224282
     58 H26        -7.9240    2.2000   -0.4610 h1        1 MOL      0.075877
     59 H27        -6.9500    1.1830    0.4490 h1        1 MOL      0.075877
     60 N6         -6.5320   -0.7540   -1.2990 n         1 MOL     -0.259325
     61 C19        -6.7050   -2.0380   -1.9710 c3        1 MOL     -0.009863
     62 C20        -6.7930   -3.2600   -0.9590 c         1 MOL      0.312200
     63 O10        -7.0670   -4.4180   -1.3870 o         1 MOL     -0.511615
     64 C21        -5.7020   -2.2370   -3.0620 c3        1 MOL     -0.031701
     65 C22        -4.3140   -1.8500   -2.6410 c         1 MOL      0.650722
     66 O11        -3.9930   -2.2010   -1.4900 o         1 MOL     -0.722183
     67 O12        -3.4950   -1.2330   -3.3810 o         1 MOL     -0.722183
     68 H28        -5.7170   -0.6450   -0.7110 hn        1 MOL      0.064542
     69 H29        -7.6670   -2.0370   -2.4980 h1        1 MOL      0.109846
     70 H30        -5.8820   -1.6260   -3.9500 hc        1 MOL      0.035887
     71 H31        -5.7220   -3.2440   -3.4910 hc        1 MOL      0.035887
     72 N7         -6.5490   -3.0650    0.3420 n         1 MOL     -0.170466
     73 C23        -6.4650   -4.1120    1.4010 c3        1 MOL     -0.114400
     74 C24        -5.0580   -4.6530    1.5340 c         1 MOL      0.561829
     75 O13        -4.8240   -5.6880    2.1290 o         1 MOL     -0.587768
     76 H32        -6.5280   -2.1040    0.6610 hn        1 MOL      0.239337
     77 H33        -7.1370   -4.9540    1.2490 h1        1 MOL      0.082733
     78 H34        -6.7740   -3.5910    2.3000 h1        1 MOL      0.082733
     79 N8         -4.0690   -4.0570    0.8830 n         1 MOL     -0.246182
     80 C25        -2.6480   -4.4990    0.7960 c3        1 MOL     -0.271326
     81 C26        -1.6750   -3.3600    1.0380 c         1 MOL      0.721117
     82 O14        -1.8480   -2.2570    0.5050 o         1 MOL     -0.677016
     83 C27        -2.3310   -5.1680   -0.5920 c3        1 MOL      0.523948
     84 C28        -2.9090   -6.5330   -0.7130 c3        1 MOL     -0.577705
     85 O15        -2.9660   -4.5500   -1.6220 oh        1 MOL     -0.649188
     86 H35        -4.2810   -3.1660    0.4510 hn        1 MOL      0.202344
     87 H36        -2.5580   -5.3560    1.4820 h1        1 MOL      0.126272
     88 H37        -1.2630   -5.1750   -0.7820 h1        1 MOL     -0.061171
     89 H38        -3.2450   -3.7010   -1.2950 ho        1 MOL      0.521604
     90 H39        -3.9890   -6.4950   -0.6140 hc        1 MOL      0.150461
     91 H40        -2.7190   -6.9110   -1.7200 hc        1 MOL      0.150461
     92 H41        -2.4660   -7.2060    0.0180 hc        1 MOL      0.150461
     93 N9         -0.6040   -3.6730    1.7030 n         1 MOL     -0.625190
     94 C29         0.6140   -2.8680    1.9110 c3        1 MOL      0.016067
     95 C30         1.6870   -3.4020    0.9880 c         1 MOL      0.488059
     96 O16         2.0220   -4.6290    1.0390 o         1 MOL     -0.570268
     97 C31         1.0610   -2.9020    3.3850 c3        1 MOL      0.167934
     98 C32        -0.0340   -2.3300    4.2660 c3        1 MOL      0.114549
     99 C33         2.4120   -2.1970    3.4900 c3        1 MOL     -0.116577
    100 C34         0.3680   -2.5000    5.7190 c3        1 MOL     -0.282958
    101 H42        -0.5440   -4.6350    2.0190 hn        1 MOL      0.299879
    102 H43         0.3650   -1.8510    1.6060 h1        1 MOL      0.128820
    103 H44         1.3280   -3.8830    3.7600 hc        1 MOL     -0.008296
    104 H45        -0.9910   -2.8280    4.1470 hc        1 MOL      0.006310
    105 H46        -0.1070   -1.2680    4.0090 hc        1 MOL      0.006310
    106 H47         2.7160   -2.1390    4.5350 hc        1 MOL      0.014233
    107 H48         3.1830   -2.8030    3.0240 hc        1 MOL      0.014233
    108 H49         2.3720   -1.1650    3.1440 hc        1 MOL      0.014233
    109 H50         0.4600   -3.5830    5.8380 hc        1 MOL      0.059785
    110 H51         1.2450   -1.9230    6.0340 hc        1 MOL      0.059785
    111 H52        -0.4790   -2.2590    6.3470 hc        1 MOL      0.059785
    112 N10         2.2160   -2.5630    0.1010 n         1 MOL     -0.118883
    113 C35         3.5040   -2.7980   -0.6260 c3        1 MOL     -0.003837
    114 C36         4.7790   -2.5240    0.1920 c         1 MOL      0.338991
    115 O17         4.7800   -1.9010    1.2360 o         1 MOL     -0.267986
    116 C37         3.6130   -1.9340   -1.8930 c3        1 MOL     -0.007984
    117 C38         2.3150   -1.9010   -2.7560 c3        1 MOL     -0.017855
    118 O18         4.0220   -0.6310   -1.7100 oh        1 MOL     -0.397928
    119 H53         1.8030   -1.6490   -0.0300 hn        1 MOL      0.112019
    120 H54         3.4440   -3.8410   -0.9260 h1        1 MOL      0.086332
    121 H55         4.3540   -2.4490   -2.5020 h1        1 MOL      0.032429
    122 H56         3.8200   -0.1480   -2.5170 ho        1 MOL      0.386917
    123 H57         2.4240   -1.9370   -3.8520 hc        1 MOL      0.020507
    124 H58         1.6930   -2.7110   -2.3950 hc        1 MOL      0.020507
    125 H59         1.7940   -0.9750   -2.5120 hc        1 MOL      0.020507
    126 N11         5.9620   -3.0050   -0.2360 n         1 MOL     -0.332634
    127 C39         7.3030   -2.7440    0.2950 c3        1 MOL     -0.196543
    128 C40         7.5990   -1.2670    0.4000 c         1 MOL      0.348260
    129 O19         8.1610   -0.8390    1.4130 o         1 MOL     -0.473857
    130 C41         8.4030   -3.4810   -0.5750 c3        1 MOL      0.359941
    131 C42         8.1180   -4.9790   -0.4790 c3        1 MOL     -0.457411
    132 O20         8.3700   -3.0560   -1.9230 oh        1 MOL     -0.621380
    133 H60         5.8880   -3.4240   -1.1450 hn        1 MOL      0.284996
    134 H61         7.3500   -3.1960    1.2940 h1        1 MOL      0.163395
    135 H62         9.3740   -3.2420   -0.1310 h1        1 MOL      0.026738
    136 H63         9.2230   -3.2460   -2.3010 ho        1 MOL      0.401056
    137 H64         7.2660   -5.1940   -1.1170 hc        1 MOL      0.129254
    138 H65         9.0610   -5.4220   -0.8090 hc        1 MOL      0.129254
    139 H66         7.9720   -5.2230    0.5680 hc        1 MOL      0.129254
    140 N12         7.1060   -0.5250   -0.6040 n         1 MOL     -0.076801
    141 C43         7.3600    0.8980   -0.7200 c3        1 MOL     -0.355546
    142 C44         6.2840    1.7050    0.0500 c         1 MOL      0.430715
    143 O21         6.6500    2.6300    0.7060 o         1 MOL     -0.512657
    144 C45         7.4360    1.1570   -2.2710 c3        1 MOL      0.101073
    145 C46         8.0990    2.5120   -2.5080 c3        1 MOL     -0.224961
    146 C47         8.3530    2.8020   -3.9710 c3        1 MOL      0.106910
    147 C48         9.5140    3.8010   -4.2090 c3        1 MOL     -0.195986
    148 N13        10.7790    3.1490   -4.1910 n4        1 MOL     -0.295227
    149 H67         6.6460   -1.0310   -1.3400 hn        1 MOL      0.196143
    150 H68         8.3240    1.0710   -0.2460 h1        1 MOL      0.172912
    151 H69         6.4690    1.1140   -2.7570 hc        1 MOL      0.011315
    152 H70         7.9650    0.2870   -2.6760 hc        1 MOL      0.011315
    153 H71         9.0890    2.5890   -2.0610 hc        1 MOL      0.116962
    154 H72         7.4180    3.3110   -2.2200 hc        1 MOL      0.116962
    155 H73         7.4420    3.0420   -4.5180 hc        1 MOL      0.025363
    156 H74         8.6420    1.8920   -4.4960 hc        1 MOL      0.025363
    157 H75         9.5600    4.6250   -3.4860 hx        1 MOL      0.143004
    158 H76         9.4360    4.2020   -5.2190 hx        1 MOL      0.143004
    159 H77        11.0260    2.7070   -3.3120 hn        1 MOL      0.305664
    160 H78        10.7550    2.4750   -4.9440 hn        1 MOL      0.305664
    161 H79        11.3890    3.8840   -4.4910 hn        1 MOL      0.305664
    162 N14         5.0180    1.2380    0.1260 n         1 MOL     -0.074250
    163 C49         4.0110    1.7320    1.1130 c3        1 MOL     -0.247352
    164 C50         4.5230    1.5660    2.5210 c         1 MOL      0.524387
    165 O22         4.1770    2.3190    3.4260 o         1 MOL     -0.568527
    166 C51         2.6640    1.0610    0.8970 c3        1 MOL      0.089964
    167 C52         1.8780    1.6900   -0.2390 c3        1 MOL     -0.159057
    168 C53         0.4960    0.9330   -0.3450 c         1 MOL      0.655119
    169 O23         0.4500   -0.2970   -0.4020 o         1 MOL     -0.712585
    170 O24        -0.5360    1.5790   -0.6330 o         1 MOL     -0.712585
    171 H80         4.8710    0.4140   -0.4410 hn        1 MOL     -0.025683
    172 H81         3.8950    2.8070    0.9430 h1        1 MOL      0.121234
    173 H82         2.0170    1.0740    1.7670 hc        1 MOL      0.039864
    174 H83         2.8480   -0.0030    0.8090 hc        1 MOL      0.039864
    175 H84         2.4670    1.6540   -1.1520 hc        1 MOL      0.050892
    176 H85         1.7200    2.7740   -0.1910 hc        1 MOL      0.050892
    177 N15         5.2160    0.4260    2.7490 n         1 MOL     -0.006288
    178 C54         5.6260    0.1240    4.0930 c3        1 MOL     -0.261939
    179 H86         4.7450   -0.0550    4.7100 h1        1 MOL      0.091834
    180 H87         6.2540   -0.7670    4.0920 h1        1 MOL      0.091834
    181 H88         6.1890    0.9650    4.5000 h1        1 MOL      0.091834
    182 H89         5.1860   -0.2560    2.0050 hn        1 MOL      0.086591
    183 Ca1        -2.0010   -0.5010   -1.5670 Ca        1 MOL      1.795145
    184 O25        -0.5170    0.4120   -3.5110 oh        1 MOL     -0.839087
    185 H90         0.2720    0.2980   -4.0320 ho        1 MOL      0.389780
    186 H91        -0.9800    1.1390   -3.9320 ho        1 MOL      0.389780
    187 O26        -1.1010   -3.0030   -2.7440 oh        1 MOL     -0.839087
    188 H92        -1.4510   -3.8250   -2.3800 ho        1 MOL      0.389780
    189 H93        -0.5480   -3.2760   -3.4750 ho        1 MOL      0.389780
@<TRIPOS>BOND
     1    1    2 1   
     2    1    4 1   
     3    1    5 1   
     4    1    6 1   
     5    2    3 2   
     6    2    7 1   
     7    7    8 1   
     8    7   15 1   
     9    8    9 1   
    10    8   11 1   
    11    8   16 1   
    12    9   10 2   
    13    9   19 1   
    14   11   12 1   
    15   11   17 1   
    16   11   18 1   
    17   12   13 1   
    18   12   14 1   
    19   19   20 1   
    20   19   28 1   
    21   20   21 1   
    22   20   23 1   
    23   20   29 1   
    24   21   22 2   
    25   21   41 1   
    26   23   24 1   
    27   23   30 1   
    28   23   31 1   
    29   24   25 1   
    30   24   32 1   
    31   24   33 1   
    32   25   26 1   
    33   25   34 1   
    34   25   35 1   
    35   26   27 1   
    36   26   36 1   
    37   26   37 1   
    38   27   38 1   
    39   27   39 1   
    40   27   40 1   
    41   41   42 1   
    42   41   49 1   
    43   42   43 1   
    44   42   45 1   
    45   42   50 1   
    46   43   44 2   
    47   43   53 1   
    48   45   46 1   
    49   45   51 1   
    50   45   52 1   
    51   46   47 1   
    52   46   48 1   
    53   53   54 1   
    54   53   57 1   
    55   54   55 1   
    56   54   58 1   
    57   54   59 1   
    58   55   56 2   
    59   55   60 1   
    60   60   61 1   
    61   60   68 1   
    62   61   62 1   
    63   61   64 1   
    64   61   69 1   
    65   62   63 2   
    66   62   72 1   
    67   64   65 1   
    68   64   70 1   
    69   64   71 1   
    70   65   66 1   
    71   65   67 1   
    72   72   73 1   
    73   72   76 1   
    74   73   74 1   
    75   73   77 1   
    76   73   78 1   
    77   74   75 2   
    78   74   79 1   
    79   79   80 1   
    80   79   86 1   
    81   80   81 1   
    82   80   83 1   
    83   80   87 1   
    84   81   82 2   
    85   81   93 1   
    86   83   84 1   
    87   83   85 1   
    88   83   88 1   
    89   84   90 1   
    90   84   91 1   
    91   84   92 1   
    92   85   89 1   
    93   93   94 1   
    94   93  101 1   
    95   94   95 1   
    96   94   97 1   
    97   94  102 1   
    98   95   96 2   
    99   95  112 1   
   100   97   98 1   
   101   97   99 1   
   102   97  103 1   
   103   98  100 1   
   104   98  104 1   
   105   98  105 1   
   106   99  106 1   
   107   99  107 1   
   108   99  108 1   
   109  100  109 1   
   110  100  110 1   
   111  100  111 1   
   112  112  113 1   
   113  112  119 1   
   114  113  114 1   
   115  113  116 1   
   116  113  120 1   
   117  114  115 2   
   118  114  126 1   
   119  116  117 1   
   120  116  118 1   
   121  116  121 1   
   122  117  123 1   
   123  117  124 1   
   124  117  125 1   
   125  118  122 1   
   126  126  127 1   
   127  126  133 1   
   128  127  128 1   
   129  127  130 1   
   130  127  134 1   
   131  128  129 2   
   132  128  140 1   
   133  130  131 1   
   134  130  132 1   
   135  130  135 1   
   136  131  137 1   
   137  131  138 1   
   138  131  139 1   
   139  132  136 1   
   140  140  141 1   
   141  140  149 1   
   142  141  142 1   
   143  141  144 1   
   144  141  150 1   
   145  142  143 2   
   146  142  162 1   
   147  144  145 1   
   148  144  151 1   
   149  144  152 1   
   150  145  146 1   
   151  145  153 1   
   152  145  154 1   
   153  146  147 1   
   154  146  155 1   
   155  146  156 1   
   156  147  148 1   
   157  147  157 1   
   158  147  158 1   
   159  148  159 1   
   160  148  160 1   
   161  148  161 1   
   162  162  163 1   
   163  162  171 1   
   164  163  164 1   
   165  163  166 1   
   166  163  172 1   
   167  164  165 2   
   168  164  177 1   
   169  166  167 1   
   170  166  173 1   
   171  166  174 1   
   172  167  168 1   
   173  167  175 1   
   174  167  176 1   
   175  168  169 1   
   176  168  170 1   
   177  177  178 1   
   178  177  182 1   
   179  178  179 1   
   180  178  180 1   
   181  178  181 1   
   182  184  185 1   
   183  184  186 1   
   184  187  188 1   
   185  187  189 1   
@<TRIPOS>SUBSTRUCTURE
     1 MOL         1 TEMP              0 ****  ****    0 ROOT
