@<TRIPOS>MOLECULE
MOL
  189   185     1     0     0
SMALL
resp


@<TRIPOS>ATOM
      1 C1          1.0400   -3.4450    6.2920 c3        1 MOL     -0.322419
      2 C2          0.9620   -3.1070    4.7960 c         1 MOL      0.744742
      3 O1          0.6700   -1.9730    4.4220 o         1 MOL     -0.601317
      4 H1          1.8840   -4.1110    6.4700 hc        1 MOL      0.076189
      5 H2          1.1730   -2.5280    6.8660 hc        1 MOL      0.076189
      6 H3          0.1180   -3.9380    6.6020 hc        1 MOL      0.076189
      7 N1          1.2850   -4.1100    3.9790 n         1 MOL     -0.635986
      8 C3          1.6790   -3.9710    2.5950 c3        1 MOL      0.097173
      9 C4          1.5380   -5.1610    1.6250 c         1 MOL      0.485356
     10 O2          2.0360   -6.2390    1.9540 o         1 MOL     -0.560825
     11 C5          3.1740   -3.6160    2.6200 c3        1 MOL      0.061044
     12 C6          3.8530   -3.5010    1.2820 c         1 MOL      0.607788
     13 O3          3.3460   -2.7230    0.4630 o         1 MOL     -0.651596
     14 O4          4.8570   -4.1690    0.9920 o         1 MOL     -0.651596
     15 H4          1.4000   -5.0310    4.3860 hn        1 MOL      0.328490
     16 H5          1.0680   -3.1520    2.2000 h1        1 MOL      0.114235
     17 H6          3.6900   -4.4550    3.1020 hc        1 MOL     -0.066977
     18 H7          3.4380   -2.7360    3.2110 hc        1 MOL     -0.066977
     19 N2          1.0170   -4.8670    0.4090 n         1 MOL     -0.091133
     20 C7          1.0100   -5.9030   -0.7280 c3        1 MOL     -0.024141
     21 C8          1.7040   -5.4300   -2.0090 c         1 MOL      0.368383
     22 O5          1.8910   -6.2970   -2.8770 o         1 MOL     -0.582123
     23 C9         -0.3870   -6.3770   -1.0140 c3        1 MOL      0.165257
     24 C10        -1.3730   -5.2460   -1.3690 c3        1 MOL     -0.009985
     25 C11        -0.8770   -7.0510    0.2610 c3        1 MOL     -0.349726
     26 C12        -2.7830   -5.6760   -1.5060 c3        1 MOL     -0.114828
     27 H8          0.6930   -3.9160    0.3090 hn        1 MOL     -0.070122
     28 H9          1.5410   -6.8230   -0.5100 h1        1 MOL      0.093161
     29 H10        -0.4360   -7.0840   -1.8450 hc        1 MOL      0.007791
     30 H11        -1.0270   -4.7780   -2.3000 hc        1 MOL      0.025914
     31 H12        -1.2660   -4.4050   -0.6840 hc        1 MOL      0.025914
     32 H13        -1.2540   -8.0270   -0.0220 hc        1 MOL      0.059988
     33 H14        -0.1020   -7.2020    1.0200 hc        1 MOL      0.059988
     34 H15        -1.6380   -6.5180    0.8180 hc        1 MOL      0.059988
     35 H16        -3.3970   -5.7560   -0.6160 hc        1 MOL      0.034819
     36 H17        -3.3280   -4.9900   -2.1520 hc        1 MOL      0.034819
     37 H18        -2.8110   -6.6090   -2.0620 hc        1 MOL      0.034819
     38 N3          2.1130   -4.1660   -2.1780 n         1 MOL     -0.110239
     39 C13         2.7830   -3.6320   -3.3450 c3        1 MOL      0.012347
     40 C14         4.2690   -3.2230   -3.1810 c         1 MOL      0.473936
     41 O6          4.8740   -2.9520   -4.1870 o         1 MOL     -0.568975
     42 C15         1.9560   -2.5420   -4.0000 c3        1 MOL     -0.087734
     43 C16         1.6290   -1.3130   -3.0960 c         1 MOL      0.682273
     44 O7          2.3700   -1.2080   -2.1190 o         1 MOL     -0.714578
     45 O8          0.6460   -0.5050   -3.3330 o         1 MOL     -0.714578
     46 H19         1.6870   -3.5030   -1.5430 hn        1 MOL      0.178856
     47 H20         2.8540   -4.4240   -4.0890 h1        1 MOL      0.066024
     48 H21         1.0190   -2.9910   -4.3290 hc        1 MOL      0.022181
     49 H22         2.4610   -2.1800   -4.8940 hc        1 MOL      0.022181
     50 N4          4.8640   -3.1640   -1.9740 n         1 MOL     -0.174903
     51 C17         6.2620   -2.8940   -1.8050 c3        1 MOL     -0.187482
     52 C18         6.7610   -1.4240   -1.9240 c         1 MOL      0.541603
     53 O9          7.9800   -1.1840   -1.9170 o         1 MOL     -0.626376
     54 H23         4.3400   -3.4320   -1.1540 hn        1 MOL      0.139366
     55 H24         6.7630   -3.4890   -2.5650 h1        1 MOL      0.087693
     56 H25         6.6200   -3.1470   -0.8070 h1        1 MOL      0.087693
     57 N5          5.8220   -0.4800   -2.1390 n         1 MOL     -0.156394
     58 C19         6.1590    0.8120   -2.7070 c3        1 MOL     -0.025472
     59 C20         6.7700    1.9120   -1.7900 c         1 MOL      0.511535
     60 O10         7.1900    2.9250   -2.2690 o         1 MOL     -0.529276
     61 C21         4.8950    1.3800   -3.3920 c3        1 MOL     -0.368282
     62 C22         3.8340    1.9350   -2.4080 c         1 MOL      0.860220
     63 O11         3.8170    1.5210   -1.2370 o         1 MOL     -0.740427
     64 O12         2.9620    2.7290   -2.7510 o         1 MOL     -0.740427
     65 H26         4.8560   -0.7870   -2.1790 hn        1 MOL      0.112560
     66 H27         6.9810    0.6310   -3.3990 h1        1 MOL      0.091926
     67 H28         4.3700    0.6830   -4.0500 hc        1 MOL      0.104081
     68 H29         5.1500    2.1900   -4.0760 hc        1 MOL      0.104081
     69 N6          6.8950    1.6630   -0.4570 n         1 MOL     -0.378471
     70 C23         7.5240    2.6020    0.4790 c3        1 MOL     -0.082670
     71 C24         6.6170    3.7170    0.9630 c         1 MOL      0.539401
     72 O13         7.0370    4.7290    1.4610 o         1 MOL     -0.596773
     73 H30         6.5060    0.8150   -0.0610 hn        1 MOL      0.313086
     74 H31         8.3750    3.1410    0.0570 h1        1 MOL      0.071312
     75 H32         7.9280    2.0660    1.3360 h1        1 MOL      0.071312
     76 N7          5.2930    3.4210    0.9860 n         1 MOL     -0.335937
     77 C25         4.1450    4.2290    1.4970 c3        1 MOL      0.061466
     78 C26         3.0020    3.2180    1.8410 c         1 MOL      0.262586
     79 O14         3.1840    1.9920    1.5230 o         1 MOL     -0.433841
     80 C27         3.6920    5.2470    0.4350 c3        1 MOL     -0.056106
     81 C28         4.7020    6.4620    0.2330 c3        1 MOL     -0.318836
     82 C29         4.2100    7.4750   -0.8530 c         1 MOL      0.685086
     83 N8          4.8240    7.4450   -1.9980 n         1 MOL     -0.791389
     84 O15         3.3800    8.3370   -0.6420 o         1 MOL     -0.597489
     85 H33         5.0540    2.5690    0.5080 hn        1 MOL      0.240550
     86 H34         4.4930    4.7280    2.3990 h1        1 MOL      0.076418
     87 H35         2.7470    5.7020    0.7330 hc        1 MOL      0.067757
     88 H36         3.5220    4.8220   -0.5630 hc        1 MOL      0.067757
     89 H37         5.6170    6.0660   -0.1960 hc        1 MOL      0.107629
     90 H38         4.9470    6.8760    1.2190 hc        1 MOL      0.107629
     91 H39         5.5050    6.7040   -2.1090 hn        1 MOL      0.367629
     92 H40         4.1600    7.7630   -2.6790 hn        1 MOL      0.367629
     93 N9          1.8240    3.6770    2.2380 n         1 MOL     -0.277400
     94 C30         0.6160    2.8350    2.5200 c3        1 MOL      0.042109
     95 C31        -0.6300    3.4360    1.8710 c         1 MOL      0.417870
     96 O16        -0.7540    4.6710    1.8140 o         1 MOL     -0.565223
     97 C32         0.5720    2.4850    3.9950 c3        1 MOL      0.332461
     98 C33         0.5980    3.8000    4.7780 c3        1 MOL     -0.277873
     99 C34        -0.7780    1.7960    4.3610 c3        1 MOL     -0.277873
    100 H41         1.7780    4.6640    2.4390 hn        1 MOL      0.254955
    101 H42         0.6780    1.8820    1.9780 h1        1 MOL      0.007251
    102 H43         1.3380    1.7850    4.2940 hc        1 MOL     -0.035997
    103 H44         0.3720    3.5490    5.8170 hc        1 MOL      0.042787
    104 H45         1.6020    4.2230    4.7210 hc        1 MOL      0.042787
    105 H46        -0.1860    4.4840    4.4600 hc        1 MOL      0.042787
    106 H47        -0.7760    0.8010    3.9220 hc        1 MOL      0.042787
    107 H48        -0.8040    1.6900    5.4470 hc        1 MOL      0.042787
    108 H49        -1.6560    2.2890    3.9360 hc        1 MOL      0.042787
    109 N10        -1.4910    2.6080    1.2750 n         1 MOL     -0.269166
    110 C35        -2.6480    3.0190    0.4160 c3        1 MOL      0.313742
    111 C36        -3.9620    2.5450    1.0460 c         1 MOL      0.125116
    112 O17        -3.9510    1.6020    1.8650 o         1 MOL     -0.269379
    113 C37        -2.3550    2.3700   -0.9140 c3        1 MOL     -0.729167
    114 C38        -3.5470    2.4090   -1.8820 c         1 MOL      0.981084
    115 N11        -3.6950    3.5330   -2.4400 n         1 MOL     -0.854001
    116 O18        -4.2340    1.4520   -2.1510 o         1 MOL     -0.590607
    117 H50        -1.3290    1.6150    1.2260 hn        1 MOL      0.389623
    118 H51        -2.7330    4.1050    0.4140 h1        1 MOL      0.004719
    119 H52        -2.0580    1.3450   -0.7140 hc        1 MOL      0.199249
    120 H53        -1.5640    2.9810   -1.3400 hc        1 MOL      0.199249
    121 H54        -3.2330    4.3240   -2.0360 hn        1 MOL      0.373981
    122 H55        -4.1340    3.6590   -3.3410 hn        1 MOL      0.373981
    123 N12        -5.1030    3.1010    0.5890 n         1 MOL     -0.206367
    124 C39        -6.4460    2.8470    1.1160 c3        1 MOL      0.037158
    125 C40        -6.8460    1.3340    0.8490 c         1 MOL      0.400827
    126 O19        -7.7650    0.9710    1.5830 o         1 MOL     -0.586997
    127 C41        -7.4490    3.6890    0.3490 c3        1 MOL      0.032958
    128 C42        -7.5360    3.5690   -1.1610 ca        1 MOL     -0.085395
    129 C43        -8.1140    2.4050   -1.7230 ca        1 MOL     -0.124036
    130 C44        -6.8860    4.5060   -1.9750 ca        1 MOL     -0.124036
    131 C45        -8.0760    2.2160   -3.1800 ca        1 MOL     -0.315290
    132 C46        -6.8600    4.3680   -3.3670 ca        1 MOL     -0.315290
    133 C47        -7.4530    3.1840   -3.9320 ca        1 MOL      0.419777
    134 O20        -7.2670    2.9890   -5.2490 oh        1 MOL     -0.564374
    135 H56        -5.0540    3.6510   -0.2640 hn        1 MOL      0.105614
    136 H57        -6.5690    3.1350    2.1590 h1        1 MOL      0.083779
    137 H58        -7.2240    4.7160    0.6340 hc        1 MOL      0.014487
    138 H59        -8.3960    3.6080    0.8790 hc        1 MOL      0.014487
    139 H60        -8.6790    1.7690   -1.0570 ha        1 MOL      0.131206
    140 H61        -6.2760    5.3000   -1.5830 ha        1 MOL      0.131206
    141 H62        -8.5930    1.3740   -3.6180 ha        1 MOL      0.161531
    142 H63        -6.3120    5.0940   -3.9500 ha        1 MOL      0.161531
    143 H64        -7.6840    2.1840   -5.5570 ho        1 MOL      0.427859
    144 N13        -6.1840    0.5620   -0.0230 n         1 MOL      0.078428
    145 C48        -6.3620   -0.8770   -0.2050 c3        1 MOL     -0.187759
    146 C49        -5.6550   -1.7730    0.8270 c         1 MOL      0.531288
    147 O21        -5.8890   -2.9700    0.9240 o         1 MOL     -0.525183
    148 C50        -6.0210   -1.1990   -1.6870 c3        1 MOL      0.050037
    149 C51        -6.5960   -2.6020   -2.0890 c3        1 MOL     -0.360062
    150 C52        -6.2870   -2.9060   -3.5720 c         1 MOL      0.794195
    151 O22        -7.1740   -2.7180   -4.4320 o         1 MOL     -0.760816
    152 O23        -5.2220   -3.5200   -3.8650 o         1 MOL     -0.760816
    153 H65        -5.4470    0.9300   -0.5960 hn        1 MOL      0.170391
    154 H66        -7.4100   -1.1450   -0.1080 h1        1 MOL      0.082358
    155 H67        -4.9420   -1.1280   -1.8560 hc        1 MOL      0.036811
    156 H68        -6.4110   -0.4840   -2.4180 hc        1 MOL      0.036811
    157 H69        -7.6700   -2.6820   -1.9170 hc        1 MOL      0.069138
    158 H70        -6.0850   -3.4120   -1.5800 hc        1 MOL      0.069138
    159 N14        -4.7650   -1.1400    1.6010 n         1 MOL     -0.348849
    160 C53        -3.8360   -1.8510    2.4860 c3        1 MOL      0.041007
    161 C54        -4.1350   -1.4940    3.9020 c         1 MOL      0.445336
    162 O24        -4.1000   -2.4100    4.6920 o         1 MOL     -0.570419
    163 C55        -2.4000   -1.4220    2.1590 c3        1 MOL      0.208218
    164 C56        -1.8360   -1.8280    0.7800 c3        1 MOL     -0.105772
    165 C57        -0.4270   -1.3540    0.6300 c         1 MOL      0.371744
    166 O25        -0.0870   -0.2580    1.1480 o         1 MOL     -0.472396
    167 O26         0.4810   -2.1310    0.2020 o         1 MOL     -0.472396
    168 H71        -4.6930   -0.1460    1.4690 hn        1 MOL      0.066220
    169 H72        -3.8190   -2.9360    2.4220 h1        1 MOL      0.082980
    170 H73        -1.7290   -1.8410    2.9150 hc        1 MOL     -0.061648
    171 H74        -2.2480   -0.3480    2.1730 hc        1 MOL     -0.061648
    172 H75        -2.4650   -1.3320    0.0500 hc        1 MOL      0.053397
    173 H76        -1.8910   -2.9170    0.6750 hc        1 MOL      0.053397
    174 N15        -4.4630   -0.2720    4.2610 n         1 MOL     -0.122244
    175 C58        -4.6730    0.2300    5.6190 c3        1 MOL     -0.242579
    176 H77        -5.7190    0.5120    5.7450 h1        1 MOL      0.095804
    177 H78        -4.4190   -0.5490    6.3380 h1        1 MOL      0.095804
    178 H79        -4.0400    1.1010    5.7870 h1        1 MOL      0.095804
    179 H80        -4.4980    0.3950    3.5000 hn        1 MOL      0.099337
    180 Ca1         2.4020   -0.2770    0.2800 Ca        1 MOL      1.684372
    181 O27         5.0710   -0.0570    1.5730 oh        1 MOL     -0.946458
    182 H81         4.6870    0.1270    2.4340 ho        1 MOL      0.441042
    183 H82         5.6010   -0.8440    1.7010 ho        1 MOL      0.441042
    184 O28         2.2110   -0.6360    2.8250 oh        1 MOL     -0.946458
    185 H83         1.3810   -1.0710    3.0330 ho        1 MOL      0.441042
    186 H84         2.8010   -0.9160    3.5260 ho        1 MOL      0.441042
    187 O29         0.8100    1.3490   -1.2020 oh        1 MOL     -0.946458
    188 H85         1.4950    1.8510   -1.6490 ho        1 MOL      0.441042
    189 H86         0.3490    0.8960   -1.8980 ho        1 MOL      0.441042
@<TRIPOS>BOND
     1    1    2 1   
     2    1    4 1   
     3    1    5 1   
     4    1    6 1   
     5    2    3 2   
     6    2    7 1   
     7    7    8 1   
     8    7   15 1   
     9    8    9 1   
    10    8   11 1   
    11    8   16 1   
    12    9   10 2   
    13    9   19 1   
    14   11   12 1   
    15   11   17 1   
    16   11   18 1   
    17   12   13 1   
    18   12   14 1   
    19   19   20 1   
    20   19   27 1   
    21   20   21 1   
    22   20   23 1   
    23   20   28 1   
    24   21   22 2   
    25   21   38 1   
    26   23   24 1   
    27   23   25 1   
    28   23   29 1   
    29   24   26 1   
    30   24   30 1   
    31   24   31 1   
    32   25   32 1   
    33   25   33 1   
    34   25   34 1   
    35   26   35 1   
    36   26   36 1   
    37   26   37 1   
    38   38   39 1   
    39   38   46 1   
    40   39   40 1   
    41   39   42 1   
    42   39   47 1   
    43   40   41 2   
    44   40   50 1   
    45   42   43 1   
    46   42   48 1   
    47   42   49 1   
    48   43   44 1   
    49   43   45 1   
    50   50   51 1   
    51   50   54 1   
    52   51   52 1   
    53   51   55 1   
    54   51   56 1   
    55   52   53 2   
    56   52   57 1   
    57   57   58 1   
    58   57   65 1   
    59   58   59 1   
    60   58   61 1   
    61   58   66 1   
    62   59   60 2   
    63   59   69 1   
    64   61   62 1   
    65   61   67 1   
    66   61   68 1   
    67   62   63 1   
    68   62   64 1   
    69   69   70 1   
    70   69   73 1   
    71   70   71 1   
    72   70   74 1   
    73   70   75 1   
    74   71   72 2   
    75   71   76 1   
    76   76   77 1   
    77   76   85 1   
    78   77   78 1   
    79   77   80 1   
    80   77   86 1   
    81   78   79 2   
    82   78   93 1   
    83   80   81 1   
    84   80   87 1   
    85   80   88 1   
    86   81   82 1   
    87   81   89 1   
    88   81   90 1   
    89   82   83 1   
    90   82   84 2   
    91   83   91 1   
    92   83   92 1   
    93   93   94 1   
    94   93  100 1   
    95   94   95 1   
    96   94   97 1   
    97   94  101 1   
    98   95   96 2   
    99   95  109 1   
   100   97   98 1   
   101   97   99 1   
   102   97  102 1   
   103   98  103 1   
   104   98  104 1   
   105   98  105 1   
   106   99  106 1   
   107   99  107 1   
   108   99  108 1   
   109  109  110 1   
   110  109  117 1   
   111  110  111 1   
   112  110  113 1   
   113  110  118 1   
   114  111  112 2   
   115  111  123 1   
   116  113  114 1   
   117  113  119 1   
   118  113  120 1   
   119  114  115 1   
   120  114  116 2   
   121  115  121 1   
   122  115  122 1   
   123  123  124 1   
   124  123  135 1   
   125  124  125 1   
   126  124  127 1   
   127  124  136 1   
   128  125  126 2   
   129  125  144 1   
   130  127  128 1   
   131  127  137 1   
   132  127  138 1   
   133  128  129 ar  
   134  128  130 ar  
   135  129  131 ar  
   136  129  139 1   
   137  130  132 ar  
   138  130  140 1   
   139  131  133 ar  
   140  131  141 1   
   141  132  133 ar  
   142  132  142 1   
   143  133  134 1   
   144  134  143 1   
   145  144  145 1   
   146  144  153 1   
   147  145  146 1   
   148  145  148 1   
   149  145  154 1   
   150  146  147 2   
   151  146  159 1   
   152  148  149 1   
   153  148  155 1   
   154  148  156 1   
   155  149  150 1   
   156  149  157 1   
   157  149  158 1   
   158  150  151 1   
   159  150  152 1   
   160  159  160 1   
   161  159  168 1   
   162  160  161 1   
   163  160  163 1   
   164  160  169 1   
   165  161  162 2   
   166  161  174 1   
   167  163  164 1   
   168  163  170 1   
   169  163  171 1   
   170  164  165 1   
   171  164  172 1   
   172  164  173 1   
   173  165  166 1   
   174  165  167 1   
   175  174  175 1   
   176  174  179 1   
   177  175  176 1   
   178  175  177 1   
   179  175  178 1   
   180  181  182 1   
   181  181  183 1   
   182  184  185 1   
   183  184  186 1   
   184  187  188 1   
   185  187  189 1   
@<TRIPOS>SUBSTRUCTURE
     1 MOL         1 TEMP              0 ****  ****    0 ROOT
