@<TRIPOS>MOLECULE
MOL
  189   185     1     0     0
SMALL
resp


@<TRIPOS>ATOM
      1 C1         -0.2160    1.5820    5.8440 c3        1 MOL     -0.272704
      2 C2         -0.5560    1.3570    4.4120 c         1 MOL      0.746172
      3 O1          0.1990    1.7630    3.4970 o         1 MOL     -0.642382
      4 H1         -0.3250    0.6480    6.3930 hc        1 MOL      0.069110
      5 H2          0.8130    1.9320    5.9230 hc        1 MOL      0.069110
      6 H3         -0.8880    2.3300    6.2640 hc        1 MOL      0.069110
      7 N1         -1.6850    0.6480    4.1680 n         1 MOL     -0.577895
      8 C3         -2.4080    0.7950    2.9020 c3        1 MOL      0.094548
      9 C4         -2.8410    2.1800    2.6180 c         1 MOL      0.422607
     10 O2         -3.8030    2.7090    3.1580 o         1 MOL     -0.496738
     11 C5         -3.5110   -0.2880    2.8000 c3        1 MOL     -0.185351
     12 C6         -4.3940   -0.1810    1.5990 c         1 MOL      0.757318
     13 O3         -5.5980   -0.1630    1.8330 o         1 MOL     -0.622957
     14 O4         -3.9220   -0.0250    0.4560 o         1 MOL     -0.622957
     15 H4         -2.1730    0.3020    4.9830 hn        1 MOL      0.326604
     16 H5         -1.6860    0.4790    2.1400 h1        1 MOL      0.021084
     17 H6         -4.0700   -0.0740    3.7120 hc        1 MOL      0.030078
     18 H7         -3.0180   -1.2610    2.8390 hc        1 MOL      0.030078
     19 N2         -2.0330    2.8750    1.8350 n         1 MOL     -0.188838
     20 C7         -2.1410    4.3200    1.6280 c3        1 MOL     -0.055302
     21 C8         -3.3460    4.6050    0.7160 c         1 MOL      0.391057
     22 O5         -4.1240    5.5450    0.9740 o         1 MOL     -0.568461
     23 C9         -0.8100    4.9020    1.1340 c3        1 MOL     -0.148786
     24 C10        -0.8090    6.4400    1.2370 c3        1 MOL     -0.301920
     25 C11         0.6360    6.9800    0.9900 c3        1 MOL      0.014445
     26 C12         0.8210    8.4410    1.1810 c3        1 MOL     -0.144013
     27 N3         -0.1330    9.2540    0.4280 n4        1 MOL     -0.372396
     28 H8         -1.1790    2.4840    1.4710 hn        1 MOL      0.330016
     29 H9         -2.3110    4.8090    2.5880 h1        1 MOL      0.063816
     30 H10        -0.6170    4.5780    0.1120 hc        1 MOL      0.079704
     31 H11        -0.0490    4.4760    1.7840 hc        1 MOL      0.079704
     32 H12        -0.9580    6.7440    2.2770 hc        1 MOL      0.151957
     33 H13        -1.5660    6.9800    0.6780 hc        1 MOL      0.151957
     34 H14         0.9250    6.6710   -0.0270 hc        1 MOL      0.050013
     35 H15         1.3000    6.4680    1.6750 hc        1 MOL      0.050013
     36 H16         1.8420    8.7450    1.0020 hx        1 MOL      0.138317
     37 H17         0.7270    8.5730    2.2610 hx        1 MOL      0.138317
     38 H18        -1.1000    9.2700    0.7170 hn        1 MOL      0.337149
     39 H19         0.1950   10.2100    0.4880 hn        1 MOL      0.337149
     40 H20         0.0390    9.1680   -0.5630 hn        1 MOL      0.337149
     41 N4         -3.4560    3.7760   -0.3030 n         1 MOL     -0.003180
     42 C13        -4.3300    4.1190   -1.4750 c3        1 MOL     -0.109349
     43 C14        -5.5600    3.2410   -1.6390 c         1 MOL      0.418544
     44 O6         -6.2320    3.3700   -2.6820 o         1 MOL     -0.520029
     45 C15        -3.4620    3.9780   -2.7830 c3        1 MOL     -0.230944
     46 C16        -2.6310    2.7380   -3.0300 c         1 MOL      0.866141
     47 O7         -2.8440    1.8050   -2.2650 o         1 MOL     -0.745945
     48 O8         -1.8300    2.7670   -4.0340 o         1 MOL     -0.745945
     49 H21        -2.7960    3.0160   -0.3270 hn        1 MOL     -0.005466
     50 H22        -4.6870    5.1370   -1.3270 h1        1 MOL      0.110557
     51 H23        -2.8340    4.8460   -2.9160 hc        1 MOL      0.051225
     52 H24        -4.0800    3.9680   -3.6820 hc        1 MOL      0.051225
     53 N5         -5.7890    2.2720   -0.7590 n         1 MOL     -0.071879
     54 C17        -7.0840    1.7350   -0.4830 c3        1 MOL     -0.242560
     55 C18        -7.4320    0.4430   -1.2480 c         1 MOL      0.588239
     56 O9         -8.5720    0.3210   -1.7580 o         1 MOL     -0.584010
     57 H25        -5.1230    2.1080   -0.0260 hn        1 MOL      0.173291
     58 H26        -7.8330    2.5020   -0.7020 h1        1 MOL      0.099696
     59 H27        -7.1270    1.6030    0.6000 h1        1 MOL      0.099696
     60 N6         -6.5100   -0.5250   -1.2430 n         1 MOL     -0.188067
     61 C19        -6.8450   -1.8610   -1.7720 c3        1 MOL      0.180599
     62 C20        -6.7370   -2.9450   -0.6560 c         1 MOL      0.204063
     63 O10        -7.0900   -4.1270   -0.9500 o         1 MOL     -0.487210
     64 C21        -5.9410   -2.2220   -2.9200 c3        1 MOL     -0.348235
     65 C22        -4.5090   -1.8800   -2.5840 c         1 MOL      0.676286
     66 O11        -3.9000   -1.0210   -3.2680 o         1 MOL     -0.642356
     67 O12        -4.0170   -2.2110   -1.5020 o         1 MOL     -0.642356
     68 H28        -5.6130   -0.3960   -0.8000 hn        1 MOL      0.036188
     69 H29        -7.9000   -1.9020   -2.0420 h1        1 MOL      0.089626
     70 H30        -6.3030   -1.5650   -3.7050 hc        1 MOL      0.100368
     71 H31        -5.9880   -3.2800   -3.1860 hc        1 MOL      0.100368
     72 N7         -6.1540   -2.6510    0.5810 n         1 MOL      0.022493
     73 C23        -6.0590   -3.6330    1.6880 c3        1 MOL     -0.115213
     74 C24        -4.8050   -4.5440    1.4330 c         1 MOL      0.525120
     75 O13        -4.6550   -5.6340    1.9300 o         1 MOL     -0.561308
     76 H32        -5.9620   -1.6710    0.7290 hn        1 MOL      0.038932
     77 H33        -6.9240   -4.2980    1.6190 h1        1 MOL      0.080156
     78 H34        -6.0890   -3.0880    2.6270 h1        1 MOL      0.080156
     79 N8         -3.7840   -4.0350    0.6820 n         1 MOL     -0.206823
     80 C25        -2.4630   -4.5750    0.3600 c3        1 MOL     -0.046306
     81 C26        -1.3890   -3.5170    0.5540 c         1 MOL      0.459587
     82 O14        -1.5380   -2.3100    0.5090 o         1 MOL     -0.564055
     83 C27        -2.3420   -5.3250   -0.9570 c3        1 MOL      0.515967
     84 C28        -2.8740   -6.7490   -0.6970 c3        1 MOL     -0.374598
     85 O15        -3.1100   -4.7630   -2.0400 oh        1 MOL     -0.722512
     86 H35        -3.9950   -3.2050    0.1400 hn        1 MOL      0.053184
     87 H36        -2.2540   -5.3290    1.1110 h1        1 MOL      0.063158
     88 H37        -1.2860   -5.3910   -1.2140 h1        1 MOL     -0.038834
     89 H38        -3.4720   -3.9020   -1.8540 ho        1 MOL      0.524306
     90 H39        -2.1250   -7.2810   -0.1040 hc        1 MOL      0.086310
     91 H40        -3.8630   -6.9050   -0.2800 hc        1 MOL      0.086310
     92 H41        -2.8410   -7.2600   -1.6660 hc        1 MOL      0.086310
     93 N9         -0.1740   -4.0120    0.7660 n         1 MOL     -0.477535
     94 C29         1.0540   -3.3690    1.1070 c3        1 MOL     -0.049646
     95 C30         2.1370   -3.7670    0.0510 c         1 MOL      0.519324
     96 O16         2.6060   -4.8800    0.0150 o         1 MOL     -0.523928
     97 C31         1.4500   -3.6080    2.6330 c3        1 MOL      0.092035
     98 C32         0.6300   -2.6690    3.4730 c3        1 MOL     -0.172395
     99 C33         2.9620   -3.2930    2.8150 c3        1 MOL     -0.068978
    100 C34         0.9040   -2.6760    5.0050 c3        1 MOL     -0.199381
    101 H42        -0.2340   -5.0220    0.8070 hn        1 MOL      0.277456
    102 H43         0.9040   -2.2940    1.0660 h1        1 MOL      0.141384
    103 H44         1.2510   -4.6280    2.9500 hc        1 MOL      0.039431
    104 H45        -0.3970   -3.0290    3.4470 hc        1 MOL      0.103730
    105 H46         0.7580   -1.6780    3.0530 hc        1 MOL      0.103730
    106 H47         3.1700   -3.4800    3.8700 hc        1 MOL      0.007451
    107 H48         3.5820   -4.0170    2.2630 hc        1 MOL      0.007451
    108 H49         3.2250   -2.2380    2.7470 hc        1 MOL      0.007451
    109 H50         0.9660   -3.7040    5.3620 hc        1 MOL      0.052516
    110 H51         1.7750   -2.0780    5.2870 hc        1 MOL      0.052516
    111 H52         0.1590   -2.1470    5.5960 hc        1 MOL      0.052516
    112 N10         2.5200   -2.7540   -0.7150 n         1 MOL     -0.353552
    113 C35         3.6940   -2.6850   -1.6010 c3        1 MOL      0.037649
    114 C36         5.0810   -2.5300   -0.8590 c         1 MOL      0.305170
    115 O17         5.2150   -2.1420    0.3090 o         1 MOL     -0.292092
    116 C37         3.6130   -1.6030   -2.6640 c3        1 MOL      0.284719
    117 C38         2.4700   -1.7930   -3.5860 c3        1 MOL     -0.232273
    118 O18         3.5070   -0.3160   -2.0430 oh        1 MOL     -0.624682
    119 H53         2.0620   -1.8980   -0.4510 hn        1 MOL      0.246870
    120 H54         3.8360   -3.6190   -2.1370 h1        1 MOL      0.068830
    121 H55         4.5760   -1.6430   -3.1790 h1        1 MOL      0.030222
    122 H56         2.5950   -0.2340   -1.7640 ho        1 MOL      0.333623
    123 H57         1.5570   -1.8570   -3.0050 hc        1 MOL      0.069588
    124 H58         2.4440   -0.9790   -4.3190 hc        1 MOL      0.069588
    125 H59         2.6660   -2.7510   -4.0690 hc        1 MOL      0.069588
    126 N11         6.2060   -2.7310   -1.6090 n         1 MOL     -0.376135
    127 C39         7.6010   -2.4780   -1.1860 c3        1 MOL      0.012797
    128 C40         7.6650   -1.1330   -0.4620 c         1 MOL      0.397968
    129 O19         8.2000   -1.1430    0.6490 o         1 MOL     -0.500307
    130 C41         8.6140   -2.4620   -2.3950 c3        1 MOL      0.285534
    131 C42         9.0590   -3.8780   -2.7950 c3        1 MOL     -0.292668
    132 O20         8.0340   -1.7600   -3.3930 oh        1 MOL     -0.655303
    133 H60         6.0410   -2.9750   -2.5720 hn        1 MOL      0.267267
    134 H61         7.9740   -3.1600   -0.4180 h1        1 MOL      0.110482
    135 H62         9.4940   -1.9930   -1.9580 h1        1 MOL      0.022349
    136 H63         8.5980   -1.7810   -4.1700 ho        1 MOL      0.435777
    137 H64         9.3240   -4.4340   -1.9010 hc        1 MOL      0.084430
    138 H65         8.2270   -4.3850   -3.2760 hc        1 MOL      0.084430
    139 H66         9.8880   -3.8430   -3.5060 hc        1 MOL      0.084430
    140 N12         7.0460   -0.0380   -0.9680 n         1 MOL     -0.331597
    141 C43         7.1210    1.3450   -0.4180 c3        1 MOL      0.045133
    142 C44         6.2460    1.5370    0.7960 c         1 MOL      0.339370
    143 O21         6.6650    2.3390    1.6610 o         1 MOL     -0.530716
    144 C45         6.9590    2.3570   -1.4570 c3        1 MOL     -0.201984
    145 C46         5.5470    2.5090   -2.0740 c3        1 MOL      0.176648
    146 C47         5.4430    3.7040   -2.9870 c3        1 MOL     -0.061440
    147 C48         5.0970    5.1030   -2.3460 c3        1 MOL      0.138334
    148 N13         5.1170    6.1800   -3.4340 n4        1 MOL     -0.388913
    149 H67         6.6560   -0.2250   -1.8840 hn        1 MOL      0.266006
    150 H68         8.1290    1.5380   -0.0360 h1        1 MOL      0.121798
    151 H69         7.5390    2.1670   -2.3520 hc        1 MOL      0.055028
    152 H70         7.2240    3.3300   -1.0390 hc        1 MOL      0.055028
    153 H71         4.7500    2.5330   -1.3290 hc        1 MOL      0.004229
    154 H72         5.3670    1.6200   -2.6790 hc        1 MOL      0.004229
    155 H73         4.5950    3.4420   -3.6130 hc        1 MOL      0.025090
    156 H74         6.3200    3.8540   -3.6140 hc        1 MOL      0.025090
    157 H75         5.7960    5.3600   -1.5590 hx        1 MOL      0.044777
    158 H76         4.1080    5.1670   -1.9090 hx        1 MOL      0.044777
    159 H77         4.7940    7.0720   -3.0650 hn        1 MOL      0.309698
    160 H78         6.0140    6.2170   -3.8950 hn        1 MOL      0.309698
    161 H79         4.5090    5.9800   -4.2130 hn        1 MOL      0.309698
    162 N14         5.1460    0.8140    0.9740 n         1 MOL     -0.036157
    163 C49         4.1580    0.8670    2.0940 c3        1 MOL     -0.407422
    164 C50         4.7530    0.0150    3.2970 c         1 MOL      0.571284
    165 O22         4.5020    0.3360    4.4110 o         1 MOL     -0.552773
    166 C51         2.7350    0.2970    1.7050 c3        1 MOL      0.225706
    167 C52         1.9770    1.2480    0.7000 c3        1 MOL     -0.015032
    168 C53         0.6630    0.6830    0.0240 c         1 MOL      0.554801
    169 O23        -0.4690    1.2190    0.2280 o         1 MOL     -0.701740
    170 O24         0.7580   -0.3580   -0.6390 o         1 MOL     -0.701740
    171 H80         4.9770    0.1000    0.2840 hn        1 MOL      0.110246
    172 H81         4.1060    1.8960    2.4390 h1        1 MOL      0.168744
    173 H82         2.0640    0.1090    2.5550 hc        1 MOL      0.029997
    174 H83         2.8050   -0.7120    1.3060 hc        1 MOL      0.029997
    175 H84         2.6030    1.6520   -0.0900 hc        1 MOL     -0.016690
    176 H85         1.6250    2.1120    1.2740 hc        1 MOL     -0.016690
    177 N15         5.5920   -1.0070    3.0720 n         1 MOL     -0.051246
    178 C54         6.3620   -1.7490    4.0400 c3        1 MOL     -0.243952
    179 H86         5.7230   -2.4860    4.5250 h1        1 MOL      0.095151
    180 H87         7.1850   -2.2570    3.5380 h1        1 MOL      0.095151
    181 H88         6.7600   -1.0650    4.7900 h1        1 MOL      0.095151
    182 H89         5.6930   -1.3240    2.1240 hn        1 MOL      0.079566
    183 Ca1        -2.0850   -0.4310   -1.2200 Ca        1 MOL      1.751707
    184 O25        -1.3950   -2.4200   -3.0160 oh        1 MOL     -0.833454
    185 H90        -0.7510   -2.0070   -3.5950 ho        1 MOL      0.386659
    186 H91        -1.7650   -3.1260   -3.5440 ho        1 MOL      0.386659
    187 O26        -0.2700    0.6970   -3.2510 oh        1 MOL     -0.833454
    188 H92         0.6650    0.8780   -3.2250 ho        1 MOL      0.386659
    189 H93        -0.6730    1.5460   -3.4210 ho        1 MOL      0.386659
@<TRIPOS>BOND
     1    1    2 1   
     2    1    4 1   
     3    1    5 1   
     4    1    6 1   
     5    2    3 2   
     6    2    7 1   
     7    7    8 1   
     8    7   15 1   
     9    8    9 1   
    10    8   11 1   
    11    8   16 1   
    12    9   10 2   
    13    9   19 1   
    14   11   12 1   
    15   11   17 1   
    16   11   18 1   
    17   12   13 1   
    18   12   14 1   
    19   19   20 1   
    20   19   28 1   
    21   20   21 1   
    22   20   23 1   
    23   20   29 1   
    24   21   22 2   
    25   21   41 1   
    26   23   24 1   
    27   23   30 1   
    28   23   31 1   
    29   24   25 1   
    30   24   32 1   
    31   24   33 1   
    32   25   26 1   
    33   25   34 1   
    34   25   35 1   
    35   26   27 1   
    36   26   36 1   
    37   26   37 1   
    38   27   38 1   
    39   27   39 1   
    40   27   40 1   
    41   41   42 1   
    42   41   49 1   
    43   42   43 1   
    44   42   45 1   
    45   42   50 1   
    46   43   44 2   
    47   43   53 1   
    48   45   46 1   
    49   45   51 1   
    50   45   52 1   
    51   46   47 1   
    52   46   48 1   
    53   53   54 1   
    54   53   57 1   
    55   54   55 1   
    56   54   58 1   
    57   54   59 1   
    58   55   56 2   
    59   55   60 1   
    60   60   61 1   
    61   60   68 1   
    62   61   62 1   
    63   61   64 1   
    64   61   69 1   
    65   62   63 2   
    66   62   72 1   
    67   64   65 1   
    68   64   70 1   
    69   64   71 1   
    70   65   66 1   
    71   65   67 1   
    72   72   73 1   
    73   72   76 1   
    74   73   74 1   
    75   73   77 1   
    76   73   78 1   
    77   74   75 2   
    78   74   79 1   
    79   79   80 1   
    80   79   86 1   
    81   80   81 1   
    82   80   83 1   
    83   80   87 1   
    84   81   82 2   
    85   81   93 1   
    86   83   84 1   
    87   83   85 1   
    88   83   88 1   
    89   84   90 1   
    90   84   91 1   
    91   84   92 1   
    92   85   89 1   
    93   93   94 1   
    94   93  101 1   
    95   94   95 1   
    96   94   97 1   
    97   94  102 1   
    98   95   96 2   
    99   95  112 1   
   100   97   98 1   
   101   97   99 1   
   102   97  103 1   
   103   98  100 1   
   104   98  104 1   
   105   98  105 1   
   106   99  106 1   
   107   99  107 1   
   108   99  108 1   
   109  100  109 1   
   110  100  110 1   
   111  100  111 1   
   112  112  113 1   
   113  112  119 1   
   114  113  114 1   
   115  113  116 1   
   116  113  120 1   
   117  114  115 2   
   118  114  126 1   
   119  116  117 1   
   120  116  118 1   
   121  116  121 1   
   122  117  123 1   
   123  117  124 1   
   124  117  125 1   
   125  118  122 1   
   126  126  127 1   
   127  126  133 1   
   128  127  128 1   
   129  127  130 1   
   130  127  134 1   
   131  128  129 2   
   132  128  140 1   
   133  130  131 1   
   134  130  132 1   
   135  130  135 1   
   136  131  137 1   
   137  131  138 1   
   138  131  139 1   
   139  132  136 1   
   140  140  141 1   
   141  140  149 1   
   142  141  142 1   
   143  141  144 1   
   144  141  150 1   
   145  142  143 2   
   146  142  162 1   
   147  144  145 1   
   148  144  151 1   
   149  144  152 1   
   150  145  146 1   
   151  145  153 1   
   152  145  154 1   
   153  146  147 1   
   154  146  155 1   
   155  146  156 1   
   156  147  148 1   
   157  147  157 1   
   158  147  158 1   
   159  148  159 1   
   160  148  160 1   
   161  148  161 1   
   162  162  163 1   
   163  162  171 1   
   164  163  164 1   
   165  163  166 1   
   166  163  172 1   
   167  164  165 2   
   168  164  177 1   
   169  166  167 1   
   170  166  173 1   
   171  166  174 1   
   172  167  168 1   
   173  167  175 1   
   174  167  176 1   
   175  168  169 1   
   176  168  170 1   
   177  177  178 1   
   178  177  182 1   
   179  178  179 1   
   180  178  180 1   
   181  178  181 1   
   182  184  185 1   
   183  184  186 1   
   184  187  188 1   
   185  187  189 1   
@<TRIPOS>SUBSTRUCTURE
     1 MOL         1 TEMP              0 ****  ****    0 ROOT
