@<TRIPOS>MOLECULE
MOL
  189   185     1     0     0
SMALL
resp


@<TRIPOS>ATOM
      1 C1         -0.6540    0.6910    6.3130 c3        1 MOL     -0.344762
      2 C2         -0.9200    0.5830    4.8580 c         1 MOL      0.794082
      3 O1         -0.0280    0.9110    4.0440 o         1 MOL     -0.657072
      4 H1         -1.1590   -0.1210    6.8350 hc        1 MOL      0.085163
      5 H2          0.4190    0.6270    6.4920 hc        1 MOL      0.085163
      6 H3         -1.0280    1.6470    6.6810 hc        1 MOL      0.085163
      7 N1         -2.1410    0.1840    4.4670 n         1 MOL     -0.685258
      8 C3         -2.6790    0.4790    3.1600 c3        1 MOL      0.207917
      9 C4         -2.8110    2.0770    3.1220 c         1 MOL      0.477185
     10 O2         -3.6020    2.6760    3.8420 o         1 MOL     -0.544048
     11 C5         -3.9730   -0.3220    2.8230 c3        1 MOL     -0.058486
     12 C6         -4.5160   -0.0230    1.4490 c         1 MOL      0.550830
     13 O3         -5.7740   -0.0770    1.4310 o         1 MOL     -0.561740
     14 O4         -3.7650    0.2570    0.4500 o         1 MOL     -0.561740
     15 H4         -2.7040   -0.2490    5.1780 hn        1 MOL      0.343771
     16 H5         -1.9040    0.1350    2.4780 h1        1 MOL     -0.018492
     17 H6         -4.7480   -0.2050    3.5770 hc        1 MOL      0.013605
     18 H7         -3.7370   -1.3680    2.6590 hc        1 MOL      0.013605
     19 N2         -2.0100    2.7230    2.2260 n         1 MOL     -0.123168
     20 C7         -1.9970    4.2080    1.9820 c3        1 MOL     -0.260000
     21 C8         -3.0940    4.8360    1.1150 c         1 MOL      0.600549
     22 O5         -3.4310    6.0350    1.2810 o         1 MOL     -0.599905
     23 C9         -0.6160    4.6190    1.3600 c3        1 MOL      0.143101
     24 C10        -0.4060    6.1510    1.3330 c3        1 MOL     -0.210719
     25 C11         1.0040    6.5590    0.7750 c3        1 MOL     -0.024504
     26 C12         1.9580    5.9450    1.8570 c3        1 MOL      0.094500
     27 N3          3.3160    6.4520    1.6460 n4        1 MOL     -0.465344
     28 H8         -1.4480    2.0940    1.6660 hn        1 MOL      0.072728
     29 H9         -1.9470    4.6690    2.9660 h1        1 MOL      0.115169
     30 H10        -0.3040    4.1190    0.4440 hc        1 MOL     -0.000707
     31 H11         0.1620    4.1980    1.9990 hc        1 MOL     -0.000707
     32 H12        -0.5340    6.6320    2.3000 hc        1 MOL      0.097583
     33 H13        -1.0790    6.5650    0.5770 hc        1 MOL      0.097583
     34 H14         1.1310    7.6350    0.6200 hc        1 MOL      0.024919
     35 H15         1.1570    6.0670   -0.1860 hc        1 MOL      0.024919
     36 H16         1.8770    4.8590    1.8730 hx        1 MOL      0.086778
     37 H17         1.6220    6.4130    2.7770 hx        1 MOL      0.086778
     38 H18         3.8380    6.0670    2.4190 hn        1 MOL      0.343269
     39 H19         3.6600    6.0700    0.7840 hn        1 MOL      0.343269
     40 H20         3.4480    7.4540    1.5940 hn        1 MOL      0.343269
     41 N4         -3.4680    4.0130    0.1800 n         1 MOL     -0.355913
     42 C13        -4.3260    4.5100   -0.9520 c3        1 MOL      0.056548
     43 C14        -5.6430    3.7040   -1.1120 c         1 MOL      0.424191
     44 O6         -6.3040    3.9140   -2.1140 o         1 MOL     -0.487779
     45 C15        -3.4850    4.5030   -2.2130 c3        1 MOL     -0.307270
     46 C16        -2.9280    3.1620   -2.6200 c         1 MOL      0.825953
     47 O7         -2.2380    3.0680   -3.6850 o         1 MOL     -0.720426
     48 O8         -2.9930    2.1470   -1.8560 o         1 MOL     -0.720426
     49 H21        -3.0590    3.0940    0.0910 hn        1 MOL      0.195186
     50 H22        -4.6100    5.5230   -0.6610 h1        1 MOL      0.099076
     51 H23        -2.7140    5.2300   -1.9790 hc        1 MOL      0.081289
     52 H24        -4.1320    4.8990   -3.0070 hc        1 MOL      0.081289
     53 N5         -5.9970    2.7680   -0.2580 n         1 MOL     -0.303115
     54 C17        -7.3100    2.1060   -0.2800 c3        1 MOL     -0.062151
     55 C18        -7.4600    1.0470   -1.3800 c         1 MOL      0.450095
     56 O9         -8.4240    1.1080   -2.1380 o         1 MOL     -0.561198
     57 H25        -5.3500    2.4470    0.4470 hn        1 MOL      0.232139
     58 H26        -8.1350    2.8080   -0.3690 h1        1 MOL      0.080131
     59 H27        -7.4420    1.6350    0.7010 h1        1 MOL      0.080131
     60 N6         -6.5040    0.1680   -1.5850 n         1 MOL     -0.022701
     61 C19        -6.6750   -1.0320   -2.4450 c3        1 MOL     -0.055819
     62 C20        -6.7060   -2.3760   -1.6660 c         1 MOL      0.416693
     63 O10        -6.9650   -3.4530   -2.1530 o         1 MOL     -0.524670
     64 C21        -5.6340   -1.1430   -3.5160 c3        1 MOL     -0.188113
     65 C22        -4.2450   -1.1490   -2.9270 c         1 MOL      0.711021
     66 O11        -3.2790   -0.7870   -3.6280 o         1 MOL     -0.683480
     67 O12        -3.9450   -1.6560   -1.8070 o         1 MOL     -0.683480
     68 H28        -5.6840    0.1770   -0.9830 hn        1 MOL     -0.006159
     69 H29        -7.6420   -1.0630   -2.9430 h1        1 MOL      0.120924
     70 H30        -5.8810   -0.4010   -4.2810 hc        1 MOL      0.080113
     71 H31        -5.7120   -2.1000   -4.0370 hc        1 MOL      0.080113
     72 N7         -6.6150   -2.2520   -0.3050 n         1 MOL     -0.249927
     73 C23        -6.6130   -3.3950    0.6270 c3        1 MOL     -0.059270
     74 C24        -5.3250   -4.2380    0.5870 c         1 MOL      0.435711
     75 O13        -5.3910   -5.3590    1.0490 o         1 MOL     -0.553024
     76 H32        -6.4170   -1.3240    0.0660 hn        1 MOL      0.136593
     77 H33        -7.3680   -4.1210    0.3340 h1        1 MOL      0.087713
     78 H34        -6.8560   -3.1390    1.6580 h1        1 MOL      0.087713
     79 N8         -4.1690   -3.7640    0.0840 n         1 MOL     -0.115233
     80 C25        -2.8310   -4.4050    0.1370 c3        1 MOL     -0.036976
     81 C26        -1.6640   -3.4870    0.4900 c         1 MOL      0.331966
     82 O14        -1.9500   -2.2840    0.6220 o         1 MOL     -0.428937
     83 C27        -2.6310   -5.1600   -1.2160 c3        1 MOL      0.345415
     84 C28        -3.6420   -6.3210   -1.2670 c3        1 MOL     -0.428688
     85 O15        -2.9730   -4.2940   -2.2360 oh        1 MOL     -0.596408
     86 H35        -4.2240   -2.8730   -0.3950 hn        1 MOL      0.147128
     87 H36        -2.8690   -5.1780    0.9090 h1        1 MOL      0.064879
     88 H37        -1.6290   -5.6040   -1.2470 h1        1 MOL      0.035569
     89 H38        -3.7870   -3.8390   -1.9890 ho        1 MOL      0.402989
     90 H39        -4.6610   -5.9770   -1.4330 hc        1 MOL      0.109115
     91 H40        -3.4340   -6.9040   -2.1660 hc        1 MOL      0.109115
     92 H41        -3.5990   -6.9570   -0.3860 hc        1 MOL      0.109115
     93 N9         -0.4480   -3.9820    0.6240 n         1 MOL     -0.344513
     94 C29         0.7350   -3.2560    0.9880 c3        1 MOL      0.004308
     95 C30         1.9130   -3.5070   -0.0250 c         1 MOL      0.532404
     96 O16         2.2750   -4.6420   -0.2760 o         1 MOL     -0.575619
     97 C31         1.1140   -3.6930    2.4520 c3        1 MOL      0.019089
     98 C32         0.2550   -2.8470    3.4970 c3        1 MOL      0.126382
     99 C33         2.6170   -3.6330    2.8920 c3        1 MOL     -0.178017
    100 C34         0.2890   -3.5350    4.9100 c3        1 MOL     -0.328635
    101 H42        -0.3980   -4.9670    0.4290 hn        1 MOL      0.257735
    102 H43         0.4940   -2.1920    0.9460 h1        1 MOL     -0.035034
    103 H44         0.8180   -4.7240    2.6000 hc        1 MOL      0.040912
    104 H45        -0.7870   -2.7230    3.2210 hc        1 MOL      0.024576
    105 H46         0.7630   -1.8960    3.5930 hc        1 MOL      0.024576
    106 H47         3.0530   -2.6310    2.7990 hc        1 MOL      0.040376
    107 H48         2.7680   -4.0210    3.9000 hc        1 MOL      0.040376
    108 H49         3.2280   -4.1820    2.1840 hc        1 MOL      0.040376
    109 H50        -0.5310   -3.1030    5.4880 hc        1 MOL      0.071202
    110 H51         0.1880   -4.6210    4.8200 hc        1 MOL      0.071202
    111 H52         1.2180   -3.3830    5.4580 hc        1 MOL      0.071202
    112 N10         2.3870   -2.5130   -0.6880 n         1 MOL     -0.120589
    113 C35         3.5430   -2.5530   -1.5880 c3        1 MOL     -0.053560
    114 C36         4.8020   -2.5520   -0.7600 c         1 MOL      0.302427
    115 O17         4.7900   -2.5290    0.4820 o         1 MOL     -0.382089
    116 C37         3.5260   -1.2600   -2.4200 c3        1 MOL      0.211521
    117 C38         2.4800   -1.2980   -3.4650 c3        1 MOL     -0.377233
    118 O18         3.3330   -0.0830   -1.6680 oh        1 MOL     -0.535703
    119 H53         1.9710   -1.6230   -0.4340 hn        1 MOL      0.161446
    120 H54         3.5890   -3.4690   -2.1840 h1        1 MOL      0.092098
    121 H55         4.3970   -1.0480   -3.0420 h1        1 MOL      0.068893
    122 H56         2.3670   -0.0330   -1.5950 ho        1 MOL      0.371351
    123 H57         2.5130   -0.3500   -4.0060 hc        1 MOL      0.106138
    124 H58         2.5380   -2.1700   -4.1210 hc        1 MOL      0.106138
    125 H59         1.4770   -1.3090   -3.0380 hc        1 MOL      0.106138
    126 N11         5.8720   -2.6080   -1.4440 n         1 MOL     -0.106465
    127 C39         7.2410   -2.4120   -0.8640 c3        1 MOL     -0.391746
    128 C40         7.4150   -1.0390   -0.3090 c         1 MOL      0.116015
    129 O19         8.1280   -0.8280    0.6900 o         1 MOL     -0.416532
    130 C41         8.4530   -2.5040   -1.8890 c3        1 MOL      0.522121
    131 C42         8.8620   -3.9670   -2.1750 c3        1 MOL     -0.393775
    132 O20         8.1910   -1.8360   -3.1290 oh        1 MOL     -0.692263
    133 H60         5.7440   -2.7170   -2.4420 hn        1 MOL      0.166066
    134 H61         7.3040   -3.1220   -0.0380 h1        1 MOL      0.233926
    135 H62         9.3200   -2.0530   -1.4180 h1        1 MOL      0.094042
    136 H63         7.7140   -2.4280   -3.7230 ho        1 MOL      0.425454
    137 H64         8.2460   -4.4190   -2.9490 hc        1 MOL      0.103615
    138 H65         9.8580   -3.7430   -2.5490 hc        1 MOL      0.103615
    139 H66         8.8960   -4.5970   -1.2840 hc        1 MOL      0.103615
    140 N12         6.9100    0.0550   -0.9130 n         1 MOL     -0.000393
    141 C43         6.9290    1.4570   -0.3530 c3        1 MOL      0.022239
    142 C44         6.0060    1.5840    0.8760 c         1 MOL      0.253055
    143 O21         6.4060    2.0540    1.9360 o         1 MOL     -0.481682
    144 C45         6.5840    2.4060   -1.4630 c3        1 MOL      0.222082
    145 C46         7.2460    2.1580   -2.7860 c3        1 MOL     -0.083578
    146 C47         7.2470    3.3970   -3.6590 c3        1 MOL      0.013965
    147 C48         5.8380    4.0110   -4.0090 c3        1 MOL     -0.020973
    148 N13         5.9880    5.3720   -4.6290 n4        1 MOL     -0.215997
    149 H67         6.4880   -0.1210   -1.8070 hn        1 MOL      0.135124
    150 H68         7.9410    1.6650   -0.0020 h1        1 MOL      0.077692
    151 H69         6.7220    3.4450   -1.1620 hc        1 MOL     -0.078947
    152 H70         5.5200    2.2080   -1.5890 hc        1 MOL     -0.078947
    153 H71         6.7830    1.3480   -3.3450 hc        1 MOL      0.036426
    154 H72         8.2510    1.8500   -2.4950 hc        1 MOL      0.036426
    155 H73         7.6930    3.1160   -4.6210 hc        1 MOL      0.029917
    156 H74         8.0090    4.1010   -3.3360 hc        1 MOL      0.029917
    157 H75         5.1950    4.1340   -3.1390 hx        1 MOL      0.097338
    158 H76         5.3480    3.3580   -4.7230 hx        1 MOL      0.097338
    159 H77         5.1120    5.8010   -4.8740 hn        1 MOL      0.258440
    160 H78         6.3970    6.0030   -3.9510 hn        1 MOL      0.258440
    161 H79         6.5450    5.4290   -5.4740 hn        1 MOL      0.258440
    162 N14         4.8310    0.9590    0.8810 n         1 MOL     -0.166454
    163 C49         4.1030    0.6720    2.1840 c3        1 MOL     -0.056589
    164 C50         4.7750   -0.2930    3.1680 c         1 MOL      0.509789
    165 O22         4.6140   -0.0580    4.3670 o         1 MOL     -0.558053
    166 C51         2.6640    0.2100    1.8820 c3        1 MOL     -0.015570
    167 C52         1.7710    1.3180    1.2370 c3        1 MOL      0.209888
    168 C53         0.5750    0.7300    0.5100 c         1 MOL      0.600824
    169 O23        -0.6400    1.1290    0.5820 o         1 MOL     -0.642088
    170 O24         0.7960   -0.1400   -0.3160 o         1 MOL     -0.642088
    171 H80         4.3590    0.5990    0.0750 hn        1 MOL      0.103953
    172 H81         4.0870    1.5670    2.8070 h1        1 MOL      0.071343
    173 H82         2.1180   -0.0350    2.7910 hc        1 MOL      0.059706
    174 H83         2.7030   -0.6470    1.2010 hc        1 MOL      0.059706
    175 H84         2.3570    1.9150    0.5340 hc        1 MOL     -0.082203
    176 H85         1.4550    2.0060    2.0250 hc        1 MOL     -0.082203
    177 N15         5.5840   -1.2690    2.6860 n         1 MOL     -0.035423
    178 C54         6.4010   -2.1390    3.6060 c3        1 MOL     -0.332956
    179 H86         5.7390   -2.6590    4.2970 h1        1 MOL      0.123260
    180 H87         6.9560   -2.8700    3.0170 h1        1 MOL      0.123260
    181 H88         7.1000   -1.5190    4.1690 h1        1 MOL      0.123260
    182 H89         5.7000   -1.3320    1.6800 hn        1 MOL      0.110471
    183 Ca1        -1.8940   -0.2220   -1.1240 Ca        1 MOL      1.748504
    184 O25        -0.6890   -2.6710   -2.3280 oh        1 MOL     -0.975541
    185 H90        -1.3830   -3.3140   -2.5000 ho        1 MOL      0.436466
    186 H91        -0.2390   -2.5650   -3.1660 ho        1 MOL      0.436466
    187 O26        -0.6290    0.9750   -3.2960 oh        1 MOL     -0.975541
    188 H92        -0.1950    0.9440   -4.1540 ho        1 MOL      0.436466
    189 H93        -1.3490    1.5950   -3.4120 ho        1 MOL      0.436466
@<TRIPOS>BOND
     1    1    2 1   
     2    1    4 1   
     3    1    5 1   
     4    1    6 1   
     5    2    3 2   
     6    2    7 1   
     7    7    8 1   
     8    7   15 1   
     9    8    9 1   
    10    8   11 1   
    11    8   16 1   
    12    9   10 2   
    13    9   19 1   
    14   11   12 1   
    15   11   17 1   
    16   11   18 1   
    17   12   13 1   
    18   12   14 1   
    19   19   20 1   
    20   19   28 1   
    21   20   21 1   
    22   20   23 1   
    23   20   29 1   
    24   21   22 2   
    25   21   41 1   
    26   23   24 1   
    27   23   30 1   
    28   23   31 1   
    29   24   25 1   
    30   24   32 1   
    31   24   33 1   
    32   25   26 1   
    33   25   34 1   
    34   25   35 1   
    35   26   27 1   
    36   26   36 1   
    37   26   37 1   
    38   27   38 1   
    39   27   39 1   
    40   27   40 1   
    41   41   42 1   
    42   41   49 1   
    43   42   43 1   
    44   42   45 1   
    45   42   50 1   
    46   43   44 2   
    47   43   53 1   
    48   45   46 1   
    49   45   51 1   
    50   45   52 1   
    51   46   47 1   
    52   46   48 1   
    53   53   54 1   
    54   53   57 1   
    55   54   55 1   
    56   54   58 1   
    57   54   59 1   
    58   55   56 2   
    59   55   60 1   
    60   60   61 1   
    61   60   68 1   
    62   61   62 1   
    63   61   64 1   
    64   61   69 1   
    65   62   63 2   
    66   62   72 1   
    67   64   65 1   
    68   64   70 1   
    69   64   71 1   
    70   65   66 1   
    71   65   67 1   
    72   72   73 1   
    73   72   76 1   
    74   73   74 1   
    75   73   77 1   
    76   73   78 1   
    77   74   75 2   
    78   74   79 1   
    79   79   80 1   
    80   79   86 1   
    81   80   81 1   
    82   80   83 1   
    83   80   87 1   
    84   81   82 2   
    85   81   93 1   
    86   83   84 1   
    87   83   85 1   
    88   83   88 1   
    89   84   90 1   
    90   84   91 1   
    91   84   92 1   
    92   85   89 1   
    93   93   94 1   
    94   93  101 1   
    95   94   95 1   
    96   94   97 1   
    97   94  102 1   
    98   95   96 2   
    99   95  112 1   
   100   97   98 1   
   101   97   99 1   
   102   97  103 1   
   103   98  100 1   
   104   98  104 1   
   105   98  105 1   
   106   99  106 1   
   107   99  107 1   
   108   99  108 1   
   109  100  109 1   
   110  100  110 1   
   111  100  111 1   
   112  112  113 1   
   113  112  119 1   
   114  113  114 1   
   115  113  116 1   
   116  113  120 1   
   117  114  115 2   
   118  114  126 1   
   119  116  117 1   
   120  116  118 1   
   121  116  121 1   
   122  117  123 1   
   123  117  124 1   
   124  117  125 1   
   125  118  122 1   
   126  126  127 1   
   127  126  133 1   
   128  127  128 1   
   129  127  130 1   
   130  127  134 1   
   131  128  129 2   
   132  128  140 1   
   133  130  131 1   
   134  130  132 1   
   135  130  135 1   
   136  131  137 1   
   137  131  138 1   
   138  131  139 1   
   139  132  136 1   
   140  140  141 1   
   141  140  149 1   
   142  141  142 1   
   143  141  144 1   
   144  141  150 1   
   145  142  143 2   
   146  142  162 1   
   147  144  145 1   
   148  144  151 1   
   149  144  152 1   
   150  145  146 1   
   151  145  153 1   
   152  145  154 1   
   153  146  147 1   
   154  146  155 1   
   155  146  156 1   
   156  147  148 1   
   157  147  157 1   
   158  147  158 1   
   159  148  159 1   
   160  148  160 1   
   161  148  161 1   
   162  162  163 1   
   163  162  171 1   
   164  163  164 1   
   165  163  166 1   
   166  163  172 1   
   167  164  165 2   
   168  164  177 1   
   169  166  167 1   
   170  166  173 1   
   171  166  174 1   
   172  167  168 1   
   173  167  175 1   
   174  167  176 1   
   175  168  169 1   
   176  168  170 1   
   177  177  178 1   
   178  177  182 1   
   179  178  179 1   
   180  178  180 1   
   181  178  181 1   
   182  184  185 1   
   183  184  186 1   
   184  187  188 1   
   185  187  189 1   
@<TRIPOS>SUBSTRUCTURE
     1 MOL         1 TEMP              0 ****  ****    0 ROOT
